df31d5976bcbda6f7aeb2d3508eda0cb  /home/qizheng/gpgpu-sim/benchmark/irregular_workload/NQU/bin/release/NQU


        *** GPGPU-Sim Simulator Version 3.2.1  [build 15629] ***


GPGPU-Sim PTX: simulation mode 0 (can change with PTX_SIM_MODE_FUNC environment variable:
               1=functional simulation only, 0=detailed performance simulator)
GPGPU-Sim: Configuration options:

-network_mode                           1 # Interconnection network mode
-inter_config_file   config_fermi_islip.icnt # Interconnection network config file
-gpgpu_ptx_use_cuobjdump                    1 # Use cuobjdump to extract ptx and sass from binaries
-gpgpu_experimental_lib_support                    0 # Try to extract code from cuda libraries [Broken because of unknown cudaGetExportTable]
-gpgpu_ptx_convert_to_ptxplus                    0 # Convert SASS (native ISA) to ptxplus and run ptxplus
-gpgpu_ptx_force_max_capability                   20 # Force maximum compute capability
-gpgpu_ptx_inst_debug_to_file                    0 # Dump executed instructions' debug information to file
-gpgpu_ptx_inst_debug_file       inst_debug.txt # Executed instructions' debug output file
-gpgpu_ptx_inst_debug_thread_uid                    1 # Thread UID for executed instructions' debug output
-gpgpu_simd_model                       1 # 1 = post-dominator
-gpgpu_shader_core_pipeline              1536:32 # shader core pipeline config, i.e., {<nthread>:<warpsize>}
-gpgpu_tex_cache:l1  4:128:24,L:R:m:N,F:128:4,128:2 # per-shader L1 texture cache  (READ-ONLY) config  {<nsets>:<bsize>:<assoc>,<rep>:<wr>:<alloc>:<wr_alloc>,<mshr>:<N>:<merge>,<mq>:<rf>}
-gpgpu_const_cache:l1 64:64:2,L:R:f:N,A:2:32,4 # per-shader L1 constant memory cache  (READ-ONLY) config  {<nsets>:<bsize>:<assoc>,<rep>:<wr>:<alloc>:<wr_alloc>,<mshr>:<N>:<merge>,<mq>} 
-gpgpu_cache:il1     4:128:4,L:R:f:N,A:2:32,4 # shader L1 instruction cache config  {<nsets>:<bsize>:<assoc>,<rep>:<wr>:<alloc>:<wr_alloc>,<mshr>:<N>:<merge>,<mq>} 
-gpgpu_cache:dl1     32:128:4,L:L:m:N,A:32:8,8 # per-shader L1 data cache config  {<nsets>:<bsize>:<assoc>,<rep>:<wr>:<alloc>:<wr_alloc>,<mshr>:<N>:<merge>,<mq> | none}
-gpgpu_perfect_mem                      0 # enable perfect memory mode (no cache miss)
-n_regfile_gating_group                    4 # group of lanes that should be read/written together)
-gpgpu_clock_gated_reg_file                    0 # enable clock gated reg file for power calculations
-gpgpu_clock_gated_lanes                    0 # enable clock gated lanes for power calculations
-gpgpu_shader_registers                32768 # Number of registers per shader core. Limits number of concurrent CTAs. (default 8192)
-gpgpu_shader_cta                       8 # Maximum number of concurrent CTAs in shader (default 8)
-gpgpu_n_clusters                       4 # number of processing clusters
-gpgpu_n_cores_per_cluster                    1 # number of simd cores per cluster
-gpgpu_n_cluster_ejection_buffer_size                    8 # number of packets in ejection buffer
-gpgpu_n_ldst_response_buffer_size                    2 # number of response packets in ld/st unit ejection buffer
-gpgpu_shmem_size                   49152 # Size of shared memory per shader core (default 16kB)
-gpgpu_shmem_num_banks                   32 # Number of banks in the shared memory in each shader core (default 16)
-gpgpu_shmem_limited_broadcast                    0 # Limit shared memory to do one broadcast per cycle (default on)
-gpgpu_shmem_warp_parts                    1 # Number of portions a warp is divided into for shared memory bank conflict check 
-gpgpu_warpdistro_shader                   -1 # Specify which shader core to collect the warp size distribution from
-gpgpu_warp_issue_shader                    0 # Specify which shader core to collect the warp issue distribution from
-gpgpu_local_mem_map                    1 # Mapping from local memory space address to simulated GPU physical address space (default = enabled)
-gpgpu_num_reg_banks                   16 # Number of register banks (default = 8)
-gpgpu_reg_bank_use_warp_id                    0 # Use warp ID in mapping registers to banks (default = off)
-gpgpu_operand_collector_num_units_sp                    6 # number of collector units (default = 4)
-gpgpu_operand_collector_num_units_sfu                    8 # number of collector units (default = 4)
-gpgpu_operand_collector_num_units_mem                    2 # number of collector units (default = 2)
-gpgpu_operand_collector_num_units_gen                    0 # number of collector units (default = 0)
-gpgpu_operand_collector_num_in_ports_sp                    2 # number of collector unit in ports (default = 1)
-gpgpu_operand_collector_num_in_ports_sfu                    1 # number of collector unit in ports (default = 1)
-gpgpu_operand_collector_num_in_ports_mem                    1 # number of collector unit in ports (default = 1)
-gpgpu_operand_collector_num_in_ports_gen                    0 # number of collector unit in ports (default = 0)
-gpgpu_operand_collector_num_out_ports_sp                    2 # number of collector unit in ports (default = 1)
-gpgpu_operand_collector_num_out_ports_sfu                    1 # number of collector unit in ports (default = 1)
-gpgpu_operand_collector_num_out_ports_mem                    1 # number of collector unit in ports (default = 1)
-gpgpu_operand_collector_num_out_ports_gen                    0 # number of collector unit in ports (default = 0)
-gpgpu_coalesce_arch                   13 # Coalescing arch (default = 13, anything else is off for now)
-gpgpu_num_sched_per_core                    1 # Number of warp schedulers per core
-gpgpu_max_insn_issue_per_warp                    1 # Max number of instructions that can be issued per warp in one cycle by scheduler
-gpgpu_simt_core_sim_order                    1 # Select the simulation order of cores in a cluster (0=Fix, 1=Round-Robin)
-gpgpu_pipeline_widths        2,1,1,2,1,1,2 # Pipeline widths ID_OC_SP,ID_OC_SFU,ID_OC_MEM,OC_EX_SP,OC_EX_SFU,OC_EX_MEM,EX_WB
-gpgpu_num_sp_units                     2 # Number of SP units (default=1)
-gpgpu_num_sfu_units                    1 # Number of SF units (default=1)
-gpgpu_num_mem_units                    1 # Number if ldst units (default=1) WARNING: not hooked up to anything
-gpgpu_scheduler                      lrr # Scheduler configuration: < lrr | gto | two_level_active > If two_level_active:<num_active_warps>:<inner_prioritization>:<outer_prioritization>For complete list of prioritization values see shader.h enum scheduler_prioritization_typeDefault: gto
-gpgpu_dram_scheduler                    1 # 0 = fifo, 1 = FR-FCFS (defaul)
-gpgpu_dram_partition_queues              8:8:8:8 # i2$:$2d:d2$:$2i
-l2_ideal                               0 # Use a ideal L2 cache that always hit
-gpgpu_cache:dl2     64:128:16,L:B:m:W,A:32:4,4 # unified banked L2 data cache config  {<nsets>:<bsize>:<assoc>,<rep>:<wr>:<alloc>:<wr_alloc>,<mshr>:<N>:<merge>,<mq>}
-gpgpu_cache:dl2_texture_only                    0 # L2 cache used for texture only
-gpgpu_n_mem                            6 # number of memory modules (e.g. memory controllers) in gpu
-gpgpu_n_mem_per_ctrlr                    2 # number of memory chips per memory controller
-gpgpu_memlatency_stat                   14 # track and display latency statistics 0x2 enables MC, 0x4 enables queue logs
-gpgpu_frfcfs_dram_sched_queue_size                   16 # 0 = unlimited (default); # entries per chip
-gpgpu_dram_return_queue_size                   16 # 0 = unlimited (default); # entries per chip
-gpgpu_dram_buswidth                    4 # default = 4 bytes (8 bytes per cycle at DDR)
-gpgpu_dram_burst_length                    8 # Burst length of each DRAM request (default = 4 data bus cycle)
-dram_data_command_freq_ratio                    4 # Frequency ratio between DRAM data bus and command bus (default = 2 times, i.e. DDR)
-gpgpu_dram_timing_opt nbk=16:CCD=2:RRD=6:RCD=12:RAS=28:RP=12:RC=40: CL=12:WL=4:CDLR=5:WR=12:nbkgrp=4:CCDL=3:RTPL=2 # DRAM timing parameters = {nbk:tCCD:tRRD:tRCD:tRAS:tRP:tRC:CL:WL:tCDLR:tWR:nbkgrp:tCCDL:tRTPL}
-rop_latency                          120 # ROP queue latency (default 85)
-dram_latency                         100 # DRAM latency (default 30)
-gpgpu_mem_addr_mapping dramid@8;00000000.00000000.00000000.00000000.0000RRRR.RRRRRRRR.BBBBCCCC.CCSSSSSS # mapping memory address to dram model {dramid@<start bit>;<memory address map>}
-gpgpu_mem_addr_test                    0 # run sweep test to check address mapping for aliased address
-gpgpu_mem_address_mask                    1 # 0 = old addressing mask, 1 = new addressing mask, 2 = new add. mask + flipped bank sel and chip sel bits
-gpuwattch_xml_file  gpuwattch_gtx480.xml # GPUWattch XML file
-power_simulation_enabled                    0 # Turn on power simulator (1=On, 0=Off)
-power_per_cycle_dump                    0 # Dump detailed power output each cycle
-power_trace_enabled                    0 # produce a file for the power trace (1=On, 0=Off)
-power_trace_zlevel                     6 # Compression level of the power trace output log (0=no comp, 9=highest)
-steady_power_levels_enabled                    0 # produce a file for the steady power levels (1=On, 0=Off)
-steady_state_definition                  8:4 # allowed deviation:number of samples
-gpgpu_max_cycle                        0 # terminates gpu simulation early (0 = no limit)
-gpgpu_max_insn                         0 # terminates gpu simulation early (0 = no limit)
-gpgpu_max_cta                          0 # terminates gpu simulation early (0 = no limit)
-gpgpu_runtime_stat                   500 # display runtime statistics such as dram utilization {<freq>:<flag>}
-gpgpu_flush_l1_cache                    0 # Flush L1 cache at the end of each kernel call
-gpgpu_flush_l2_cache                    0 # Flush L2 cache at the end of each kernel call
-gpgpu_deadlock_detect                    1 # Stop the simulation at deadlock (1=on (default), 0=off)
-gpgpu_ptx_instruction_classification                    0 # if enabled will classify ptx instruction types per kernel (Max 255 kernels now)
-gpgpu_ptx_sim_mode                     0 # Select between Performance (default) or Functional simulation (1)
-gpgpu_clock_domains 700.0:1400.0:700.0:924.0 # Clock Domain Frequencies in MhZ {<Core Clock>:<ICNT Clock>:<L2 Clock>:<DRAM Clock>}
-gpgpu_max_concurrent_kernel                    8 # maximum kernels that can run concurrently on GPU
-gpgpu_cflog_interval                    0 # Interval between each snapshot in control flow logger
-visualizer_enabled                     0 # Turn on visualizer output (1=On, 0=Off)
-visualizer_outputfile                 NULL # Specifies the output log file for visualizer
-visualizer_zlevel                      6 # Compression level of the visualizer output log (0=no comp, 9=highest)
-trace_enabled                          0 # Turn on traces
-trace_components                    none # comma seperated list of traces to enable. Complete list found in trace_streams.tup. Default none
-trace_sampling_core                    0 # The core which is printed using CORE_DPRINTF. Default 0
-enable_ptx_file_line_stats                    1 # Turn on PTX source line statistic profiling. (1 = On)
-ptx_line_stats_filename gpgpu_inst_stats.txt # Output file for PTX source line statistics.
-save_embedded_ptx                      0 # saves ptx files embedded in binary as <n>.ptx
-keep                                   0 # keep intermediate files created by GPGPU-Sim when interfacing with external programs
-gpgpu_ptx_save_converted_ptxplus                    0 # Saved converted ptxplus to a file
-ptx_opcode_latency_int         4,13,4,5,145 # Opcode latencies for integers <ADD,MAX,MUL,MAD,DIV>Default 1,1,19,25,145
-ptx_opcode_latency_fp          4,13,4,5,39 # Opcode latencies for single precision floating points <ADD,MAX,MUL,MAD,DIV>Default 1,1,1,1,30
-ptx_opcode_latency_dp         8,19,8,8,330 # Opcode latencies for double precision floating points <ADD,MAX,MUL,MAD,DIV>Default 8,8,8,8,335
-ptx_opcode_initiation_int            1,2,2,1,8 # Opcode initiation intervals for integers <ADD,MAX,MUL,MAD,DIV>Default 1,1,4,4,32
-ptx_opcode_initiation_fp            1,2,1,1,4 # Opcode initiation intervals for single precision floating points <ADD,MAX,MUL,MAD,DIV>Default 1,1,1,1,5
-ptx_opcode_initiation_dp         8,16,8,8,130 # Opcode initiation intervals for double precision floating points <ADD,MAX,MUL,MAD,DIV>Default 8,8,8,8,130
DRAM Timing Options:
nbk                                    16 # number of banks
CCD                                     2 # column to column delay
RRD                                     6 # minimal delay between activation of rows in different banks
RCD                                    12 # row to column delay
RAS                                    28 # time needed to activate row
RP                                     12 # time needed to precharge (deactivate) row
RC                                     40 # row cycle time
CDLR                                    5 # switching from write to read (changes tWTR)
WR                                     12 # last data-in to row precharge
CL                                     12 # CAS latency
WL                                      4 # Write latency
nbkgrp                                  4 # number of bank groups
CCDL                                    3 # column to column delay between accesses to different bank groups
RTPL                                    2 # read to precharge delay between accesses to different bank groups
addr_dec_mask[CHIP]  = 0000000000000000 	high:64 low:0
addr_dec_mask[BK]    = 000000000000f000 	high:16 low:12
addr_dec_mask[ROW]   = 000000000fff0000 	high:28 low:16
addr_dec_mask[COL]   = 0000000000000fff 	high:12 low:0
addr_dec_mask[BURST] = 000000000000003f 	high:6 low:0
*** Initializing Memory Statistics ***
GPGPU-Sim uArch: interconnect nodemap
GPGPU-Sim uArch:   0 
GPGPU-Sim uArch:   1   2   3   4 
GPGPU-Sim uArch:   5   6   7   8 
GPGPU-Sim uArch:   9  10  11  12 
GPGPU-Sim uArch:  13  14  15  16 
GPGPU-Sim uArch:  17  18  19  20 
GPGPU-Sim uArch:  21  22 GPGPU-Sim PTX: __cudaRegisterFatBinary, fat_cubin_handle = 1, filename=nqueen.cu
self exe links to: /home/qizheng/gpgpu-sim/benchmark/irregular_workload/NQU/bin/release/NQU
Running md5sum using "md5sum /home/qizheng/gpgpu-sim/benchmark/irregular_workload/NQU/bin/release/NQU "
Running cuobjdump using "$CUDA_INSTALL_PATH/bin/cuobjdump -ptx -elf -sass /home/qizheng/gpgpu-sim/benchmark/irregular_workload/NQU/bin/release/NQU > _cuobjdump_complete_output_uEMoa2"
Parsing file _cuobjdump_complete_output_uEMoa2
######### cuobjdump parser ########
## Adding new section ELF
Section has 1 members!
Adding arch: sm_30
Adding identifier: nqueen.cu
## Adding new section PTX
Section has 2 members!
Adding ptx filename: _cuobjdump_1.ptx
Adding arch: sm_30
Adding identifier: nqueen.cu
## Adding new section ELF
Section has 3 members!
Adding arch: sm_20
Adding identifier: nqueen.cu
## Adding new section PTX
Section has 4 members!
Adding ptx filename: _cuobjdump_2.ptx
Adding arch: sm_20
Adding identifier: nqueen.cu
## Adding new section ELF
Section has 5 members!
Adding arch: sm_10
Adding identifier: nqueen.cu
## Adding new section PTX
Section has 6 members!
Adding ptx filename: _cuobjdump_3.ptx
Adding arch: sm_10
Adding identifier: nqueen.cu
Done parsing!!!
GPGPU-Sim PTX: __cudaRegisterFunction _Z24solve_nqueen_cuda_kerneliiPjS_S_S_i : hostFun 0x0x404a30, fat_cubin_handle = 1
GPGPU-Sim PTX: allocating shared region for "__cuda_local_var_17361_39_non_const_mask" from 0x0 to 0xf00 (shared memory space)
GPGPU-Sim PTX: allocating shared region for "__cuda_local_var_17362_39_non_const_l_mask" from 0xf00 to 0x1e00 (shared memory space)
GPGPU-Sim PTX: allocating shared region for "__cuda_local_var_17363_39_non_const_r_mask" from 0x1e00 to 0x2d00 (shared memory space)
GPGPU-Sim PTX: allocating shared region for "__cuda_local_var_17364_39_non_const_m" from 0x2d00 to 0x3c00 (shared memory space)
GPGPU-Sim PTX: allocating shared region for "__cuda_local_var_17366_39_non_const_sum" from 0x3c00 to 0x3d80 (shared memory space)
GPGPU-Sim PTX: instruction assembly for function '_Z24solve_nqueen_cuda_kerneliiPjS_S_S_i'...   done.
GPGPU-Sim PTX: finding reconvergence points for '_Z24solve_nqueen_cuda_kerneliiPjS_S_S_i'...
GPGPU-Sim PTX: Finding dominators for '_Z24solve_nqueen_cuda_kerneliiPjS_S_S_i'...
GPGPU-Sim PTX: Finding immediate dominators for '_Z24solve_nqueen_cuda_kerneliiPjS_S_S_i'...
GPGPU-Sim PTX: Finding postdominators for '_Z24solve_nqueen_cuda_kerneliiPjS_S_S_i'...
GPGPU-Sim PTX: Finding immediate postdominators for '_Z24solve_nqueen_cuda_kerneliiPjS_S_S_i'...
GPGPU-Sim PTX: pre-decoding instructions for '_Z24solve_nqueen_cuda_kerneliiPjS_S_S_i'...
GPGPU-Sim PTX: reconvergence points for _Z24solve_nqueen_cuda_kerneliiPjS_S_S_i...
GPGPU-Sim PTX:  1 (potential) branch divergence @  PC=0x0a8 (_1.ptx:72) @%p1 bra BB0_2;
GPGPU-Sim PTX:    immediate post dominator      @  PC=0x2f0 (_1.ptx:189) bar.sync 0;
GPGPU-Sim PTX:  2 (potential) branch divergence @  PC=0x0c0 (_1.ptx:77) bra.uni BB0_11;
GPGPU-Sim PTX:    immediate post dominator      @  PC=0x2f0 (_1.ptx:189) bar.sync 0;
GPGPU-Sim PTX:  3 (potential) branch divergence @  PC=0x1c0 (_1.ptx:125) @%p2 bra BB0_8;
GPGPU-Sim PTX:    immediate post dominator      @  PC=0x2d0 (_1.ptx:179) mov.u32 %r130, %r131;
GPGPU-Sim PTX:  4 (potential) branch divergence @  PC=0x200 (_1.ptx:137) @%p3 bra BB0_8;
GPGPU-Sim PTX:    immediate post dominator      @  PC=0x2d0 (_1.ptx:179) mov.u32 %r130, %r131;
GPGPU-Sim PTX:  5 (potential) branch divergence @  PC=0x220 (_1.ptx:144) @%p4 bra BB0_7;
GPGPU-Sim PTX:    immediate post dominator      @  PC=0x2d0 (_1.ptx:179) mov.u32 %r130, %r131;
GPGPU-Sim PTX:  6 (potential) branch divergence @  PC=0x2b8 (_1.ptx:168) bra.uni BB0_9;
GPGPU-Sim PTX:    immediate post dominator      @  PC=0x2d0 (_1.ptx:179) mov.u32 %r130, %r131;
GPGPU-Sim PTX:  7 (potential) branch divergence @  PC=0x2e0 (_1.ptx:182) @%p5 bra BB0_3;
GPGPU-Sim PTX:    immediate post dominator      @  PC=0x2e8 (_1.ptx:185) st.shared.u32 [%rl5], %r132;
GPGPU-Sim PTX:  8 (potential) branch divergence @  PC=0x320 (_1.ptx:198) @!%p8 bra BB0_13;
GPGPU-Sim PTX:    immediate post dominator      @  PC=0x348 (_1.ptx:208) bar.sync 0;
GPGPU-Sim PTX:  9 (potential) branch divergence @  PC=0x360 (_1.ptx:213) @%p9 bra BB0_15;
GPGPU-Sim PTX:    immediate post dominator      @  PC=0x388 (_1.ptx:223) bar.sync 0;
GPGPU-Sim PTX: 10 (potential) branch divergence @  PC=0x3a0 (_1.ptx:228) @%p10 bra BB0_17;
GPGPU-Sim PTX:    immediate post dominator      @  PC=0x3c8 (_1.ptx:238) bar.sync 0;
GPGPU-Sim PTX: 11 (potential) branch divergence @  PC=0x3e0 (_1.ptx:243) @%p11 bra BB0_19;
GPGPU-Sim PTX:    immediate post dominator      @  PC=0x408 (_1.ptx:253) bar.sync 0;
GPGPU-Sim PTX: 12 (potential) branch divergence @  PC=0x420 (_1.ptx:258) @%p12 bra BB0_21;
GPGPU-Sim PTX:    immediate post dominator      @  PC=0x448 (_1.ptx:268) bar.sync 0;
GPGPU-Sim PTX: 13 (potential) branch divergence @  PC=0x460 (_1.ptx:273) @%p13 bra BB0_23;
GPGPU-Sim PTX:    immediate post dominator      @  PC=0x488 (_1.ptx:283) bar.sync 0;
GPGPU-Sim PTX: 14 (potential) branch divergence @  PC=0x4a0 (_1.ptx:288) @%p14 bra BB0_25;
GPGPU-Sim PTX:    immediate post dominator      @  PC=0x4c8 (_1.ptx:298) bar.sync 0;
GPGPU-Sim PTX: 15 (potential) branch divergence @  PC=0x4e0 (_1.ptx:303) @%p15 bra BB0_27;
GPGPU-Sim PTX:    immediate post dominator      @ 
GPGPU-Sim PTX: ... end of reconvergence points for _Z24solve_nqueen_cuda_kerneliiPjS_S_S_i
GPGPU-Sim PTX: ... done pre-decoding instructions for '_Z24solve_nqueen_cuda_kerneliiPjS_S_S_i'.
GPGPU-Sim PTX: finished parsing EMBEDDED .ptx file _1.ptx
Adding _cuobjdump_2.ptx with cubin handle 1
GPGPU-Sim PTX: extracting embedded .ptx to temporary file "_ptx_G6ejPT"
Running: cat _ptx_G6ejPT | sed 's/.version 1.5/.version 1.4/' | sed 's/, texmode_independent//' | sed 's/\(\.extern \.const\[1\] .b8 \w\+\)\[\]/\1\[1\]/' | sed 's/const\[.\]/const\[0\]/g' > _ptx2_ylCbFL
GPGPU-Sim PTX: generating ptxinfo using "$CUDA_INSTALL_PATH/bin/ptxas --gpu-name=sm_20 -v _ptx2_ylCbFL --output-file  /dev/null 2> _ptx_G6ejPTinfo"
GPGPU-Sim PTX: Kernel '_Z24solve_nqueen_cuda_kerneliiPjS_S_S_i' : regs=16, lmem=0, smem=15744, cmem=76
GPGPU-Sim PTX: removing ptxinfo using "rm -f _ptx_G6ejPT _ptx2_ylCbFL _ptx_G6ejPTinfo"
GPGPU-Sim PTX: loading globals with explicit initializers... 
GPGPU-Sim PTX: finished loading globals (0 bytes total).
GPGPU-Sim PTX: loading constants with explicit initializers...  done.
Usage: condor_exec.exe [-c|-g] n steps
  -c: CPU only
  -g: GPU only
  n: n-queen
  steps: step for GPU
Default to 8 queen
CUDA initialized.
GPGPU-Sim: synchronize waiting for inactive GPU simulation
GPGPU-Sim API: Stream Manager State
GPGPU-Sim: detected inactive GPU simulation thread
CPU: 8 queen = 92  time = 0.015000 msec
GPGPU-Sim: synchronize waiting for inactive GPU simulation
GPGPU-Sim API: Stream Manager State
GPGPU-Sim: detected inactive GPU simulation thread

GPGPU-Sim PTX: cudaLaunch for 0x0x404a30 (mode=performance simulation) on stream 0
GPGPU-Sim PTX: pushing kernel '_Z24solve_nqueen_cuda_kerneliiPjS_S_S_i' to stream 0, gridDim= (256,1,1) blockDim = (96,1,1) 
New kernel starts! Tot_Warpnum: 9
kernel '_Z24solve_nqueen_cuda_kerneliiPjS_S_S_i' transfer to GPU hardware scheduler
Core 0 stall_at_cycle 0 Active_warp 0
Core 1 stall_at_cycle 0 Active_warp 0
Core 2 stall_at_cycle 0 Active_warp 0
Core 3 stall_at_cycle 0 Active_warp 0
GPGPU-Sim uArch: CTA/core = 3, limited by: shmem
Core 0 stall_at_cycle 1 Active_warp 3
Core 1 stall_at_cycle 1 Active_warp 3
Core 2 stall_at_cycle 1 Active_warp 3
Core 3 stall_at_cycle 1 Active_warp 3
Core 0 stall_at_cycle 2 Active_warp 6
Core 1 stall_at_cycle 2 Active_warp 6
Core 2 stall_at_cycle 2 Active_warp 6
Core 3 stall_at_cycle 2 Active_warp 6
Core 0 stall_at_cycle 3 Active_warp 9
Core 1 stall_at_cycle 3 Active_warp 9
Core 2 stall_at_cycle 3 Active_warp 9
Core 3 stall_at_cycle 3 Active_warp 9
Core 0 stall_at_cycle 4 Active_warp 9
Core 1 stall_at_cycle 4 Active_warp 9
Core 2 stall_at_cycle 4 Active_warp 9
Core 3 stall_at_cycle 4 Active_warp 9
Core 0 stall_at_cycle 5 Active_warp 9
Core 1 stall_at_cycle 5 Active_warp 9
Core 2 stall_at_cycle 5 Active_warp 9
Core 3 stall_at_cycle 5 Active_warp 9
Core 0 stall_at_cycle 6 Active_warp 9
Core 1 stall_at_cycle 6 Active_warp 9
Core 2 stall_at_cycle 6 Active_warp 9
Core 3 stall_at_cycle 6 Active_warp 9
Core 0 stall_at_cycle 7 Active_warp 9
Core 1 stall_at_cycle 7 Active_warp 9
Core 2 stall_at_cycle 7 Active_warp 9
Core 3 stall_at_cycle 7 Active_warp 9
Core 0 stall_at_cycle 8 Active_warp 9
Core 1 stall_at_cycle 8 Active_warp 9
Core 2 stall_at_cycle 8 Active_warp 9
Core 3 stall_at_cycle 8 Active_warp 9
Core 0 stall_at_cycle 9 Active_warp 9
Core 1 stall_at_cycle 9 Active_warp 9
Core 2 stall_at_cycle 9 Active_warp 9
Core 3 stall_at_cycle 9 Active_warp 9
Core 0 stall_at_cycle 10 Active_warp 9
Core 1 stall_at_cycle 10 Active_warp 9
Core 2 stall_at_cycle 10 Active_warp 9
Core 3 stall_at_cycle 10 Active_warp 9
Core 0 stall_at_cycle 11 Active_warp 9
Core 1 stall_at_cycle 11 Active_warp 9
Core 2 stall_at_cycle 11 Active_warp 9
Core 3 stall_at_cycle 11 Active_warp 9
Core 0 stall_at_cycle 12 Active_warp 9
Core 1 stall_at_cycle 12 Active_warp 9
Core 2 stall_at_cycle 12 Active_warp 9
Core 3 stall_at_cycle 12 Active_warp 9
Core 0 stall_at_cycle 13 Active_warp 9
Core 1 stall_at_cycle 13 Active_warp 9
Core 2 stall_at_cycle 13 Active_warp 9
Core 3 stall_at_cycle 13 Active_warp 9
Core 0 stall_at_cycle 14 Active_warp 9
Core 1 stall_at_cycle 14 Active_warp 9
Core 2 stall_at_cycle 14 Active_warp 9
Core 3 stall_at_cycle 14 Active_warp 9
Core 0 stall_at_cycle 15 Active_warp 9
Core 1 stall_at_cycle 15 Active_warp 9
Core 2 stall_at_cycle 15 Active_warp 9
Core 3 stall_at_cycle 15 Active_warp 9
Core 0 stall_at_cycle 16 Active_warp 9
Core 1 stall_at_cycle 16 Active_warp 9
Core 2 stall_at_cycle 16 Active_warp 9
Core 3 stall_at_cycle 16 Active_warp 9
Core 0 stall_at_cycle 17 Active_warp 9
Core 1 stall_at_cycle 17 Active_warp 9
Core 2 stall_at_cycle 17 Active_warp 9
Core 3 stall_at_cycle 17 Active_warp 9
Core 0 stall_at_cycle 18 Active_warp 9
Core 1 stall_at_cycle 18 Active_warp 9
Core 2 stall_at_cycle 18 Active_warp 9
Core 3 stall_at_cycle 18 Active_warp 9
Core 0 stall_at_cycle 19 Active_warp 9
Core 1 stall_at_cycle 19 Active_warp 9
Core 2 stall_at_cycle 19 Active_warp 9
Core 3 stall_at_cycle 19 Active_warp 9
Core 0 stall_at_cycle 20 Active_warp 9
Core 1 stall_at_cycle 20 Active_warp 9
Core 2 stall_at_cycle 20 Active_warp 9
Core 3 stall_at_cycle 20 Active_warp 9
Core 0 stall_at_cycle 21 Active_warp 9
Core 1 stall_at_cycle 21 Active_warp 9
Core 2 stall_at_cycle 21 Active_warp 9
Core 3 stall_at_cycle 21 Active_warp 9
Core 0 stall_at_cycle 22 Active_warp 9
Core 1 stall_at_cycle 22 Active_warp 9
Core 2 stall_at_cycle 22 Active_warp 9
Core 3 stall_at_cycle 22 Active_warp 9
Core 0 stall_at_cycle 23 Active_warp 9
Core 1 stall_at_cycle 23 Active_warp 9
Core 2 stall_at_cycle 23 Active_warp 9
Core 3 stall_at_cycle 23 Active_warp 9
Core 0 stall_at_cycle 24 Active_warp 9
Core 1 stall_at_cycle 24 Active_warp 9
Core 2 stall_at_cycle 24 Active_warp 9
Core 3 stall_at_cycle 24 Active_warp 9
Core 0 stall_at_cycle 25 Active_warp 9
Core 1 stall_at_cycle 25 Active_warp 9
Core 2 stall_at_cycle 25 Active_warp 9
Core 3 stall_at_cycle 25 Active_warp 9
Core 0 stall_at_cycle 26 Active_warp 9
Core 1 stall_at_cycle 26 Active_warp 9
Core 2 stall_at_cycle 26 Active_warp 9
Core 3 stall_at_cycle 26 Active_warp 9
Core 0 stall_at_cycle 27 Active_warp 9
Core 1 stall_at_cycle 27 Active_warp 9
Core 2 stall_at_cycle 27 Active_warp 9
Core 3 stall_at_cycle 27 Active_warp 9
Core 0 stall_at_cycle 28 Active_warp 9
Core 1 stall_at_cycle 28 Active_warp 9
Core 2 stall_at_cycle 28 Active_warp 9
Core 3 stall_at_cycle 28 Active_warp 9
Core 0 stall_at_cycle 29 Active_warp 9
Core 1 stall_at_cycle 29 Active_warp 9
Core 2 stall_at_cycle 29 Active_warp 9
Core 3 stall_at_cycle 29 Active_warp 9
Core 0 stall_at_cycle 30 Active_warp 9
Core 1 stall_at_cycle 30 Active_warp 9
Core 2 stall_at_cycle 30 Active_warp 9
Core 3 stall_at_cycle 30 Active_warp 9
Core 0 stall_at_cycle 31 Active_warp 9
Core 1 stall_at_cycle 31 Active_warp 9
Core 2 stall_at_cycle 31 Active_warp 9
Core 3 stall_at_cycle 31 Active_warp 9
Core 0 stall_at_cycle 32 Active_warp 9
Core 1 stall_at_cycle 32 Active_warp 9
Core 2 stall_at_cycle 32 Active_warp 9
Core 3 stall_at_cycle 32 Active_warp 9
Core 0 stall_at_cycle 33 Active_warp 9
Core 1 stall_at_cycle 33 Active_warp 9
Core 2 stall_at_cycle 33 Active_warp 9
Core 3 stall_at_cycle 33 Active_warp 9
Core 0 stall_at_cycle 34 Active_warp 9
Core 1 stall_at_cycle 34 Active_warp 9
Core 2 stall_at_cycle 34 Active_warp 9
Core 3 stall_at_cycle 34 Active_warp 9
Core 0 stall_at_cycle 35 Active_warp 9
Core 1 stall_at_cycle 35 Active_warp 9
Core 2 stall_at_cycle 35 Active_warp 9
Core 3 stall_at_cycle 35 Active_warp 9
Core 0 stall_at_cycle 36 Active_warp 9
Core 1 stall_at_cycle 36 Active_warp 9
Core 2 stall_at_cycle 36 Active_warp 9
Core 3 stall_at_cycle 36 Active_warp 9
Core 0 stall_at_cycle 37 Active_warp 9
Core 1 stall_at_cycle 37 Active_warp 9
Core 2 stall_at_cycle 37 Active_warp 9
Core 3 stall_at_cycle 37 Active_warp 9
Core 0 stall_at_cycle 38 Active_warp 9
Core 1 stall_at_cycle 38 Active_warp 9
Core 2 stall_at_cycle 38 Active_warp 9
Core 3 stall_at_cycle 38 Active_warp 9
Core 0 stall_at_cycle 39 Active_warp 9
Core 1 stall_at_cycle 39 Active_warp 9
Core 2 stall_at_cycle 39 Active_warp 9
Core 3 stall_at_cycle 39 Active_warp 9
Core 0 stall_at_cycle 40 Active_warp 9
Core 1 stall_at_cycle 40 Active_warp 9
Core 2 stall_at_cycle 40 Active_warp 9
Core 3 stall_at_cycle 40 Active_warp 9
Core 0 stall_at_cycle 41 Active_warp 9
Core 1 stall_at_cycle 41 Active_warp 9
Core 2 stall_at_cycle 41 Active_warp 9
Core 3 stall_at_cycle 41 Active_warp 9
Core 0 stall_at_cycle 42 Active_warp 9
Core 1 stall_at_cycle 42 Active_warp 9
Core 2 stall_at_cycle 42 Active_warp 9
Core 3 stall_at_cycle 42 Active_warp 9
Core 0 stall_at_cycle 43 Active_warp 9
Core 1 stall_at_cycle 43 Active_warp 9
Core 2 stall_at_cycle 43 Active_warp 9
Core 3 stall_at_cycle 43 Active_warp 9
Core 0 stall_at_cycle 44 Active_warp 9
Core 1 stall_at_cycle 44 Active_warp 9
Core 2 stall_at_cycle 44 Active_warp 9
Core 3 stall_at_cycle 44 Active_warp 9
Core 0 stall_at_cycle 45 Active_warp 9
Core 1 stall_at_cycle 45 Active_warp 9
Core 2 stall_at_cycle 45 Active_warp 9
Core 3 stall_at_cycle 45 Active_warp 9
Core 0 stall_at_cycle 46 Active_warp 9
Core 1 stall_at_cycle 46 Active_warp 9
Core 2 stall_at_cycle 46 Active_warp 9
Core 3 stall_at_cycle 46 Active_warp 9
Core 0 stall_at_cycle 47 Active_warp 9
Core 1 stall_at_cycle 47 Active_warp 9
Core 2 stall_at_cycle 47 Active_warp 9
Core 3 stall_at_cycle 47 Active_warp 9
Core 0 stall_at_cycle 48 Active_warp 9
Core 1 stall_at_cycle 48 Active_warp 9
Core 2 stall_at_cycle 48 Active_warp 9
Core 3 stall_at_cycle 48 Active_warp 9
Core 0 stall_at_cycle 49 Active_warp 9
Core 1 stall_at_cycle 49 Active_warp 9
Core 2 stall_at_cycle 49 Active_warp 9
Core 3 stall_at_cycle 49 Active_warp 9
Core 0 stall_at_cycle 50 Active_warp 9
Core 1 stall_at_cycle 50 Active_warp 9
Core 2 stall_at_cycle 50 Active_warp 9
Core 3 stall_at_cycle 50 Active_warp 9
Core 0 stall_at_cycle 51 Active_warp 9
Core 1 stall_at_cycle 51 Active_warp 9
Core 2 stall_at_cycle 51 Active_warp 9
Core 3 stall_at_cycle 51 Active_warp 9
Core 0 stall_at_cycle 52 Active_warp 9
Core 1 stall_at_cycle 52 Active_warp 9
Core 2 stall_at_cycle 52 Active_warp 9
Core 3 stall_at_cycle 52 Active_warp 9
Core 0 stall_at_cycle 53 Active_warp 9
Core 1 stall_at_cycle 53 Active_warp 9
Core 2 stall_at_cycle 53 Active_warp 9
Core 3 stall_at_cycle 53 Active_warp 9
Core 0 stall_at_cycle 54 Active_warp 9
Core 1 stall_at_cycle 54 Active_warp 9
Core 2 stall_at_cycle 54 Active_warp 9
Core 3 stall_at_cycle 54 Active_warp 9
Core 0 stall_at_cycle 55 Active_warp 9
Core 1 stall_at_cycle 55 Active_warp 9
Core 2 stall_at_cycle 55 Active_warp 9
Core 3 stall_at_cycle 55 Active_warp 9
Core 0 stall_at_cycle 56 Active_warp 9
Core 1 stall_at_cycle 56 Active_warp 9
Core 2 stall_at_cycle 56 Active_warp 9
Core 3 stall_at_cycle 56 Active_warp 9
Core 0 stall_at_cycle 57 Active_warp 9
Core 1 stall_at_cycle 57 Active_warp 9
Core 2 stall_at_cycle 57 Active_warp 9
Core 3 stall_at_cycle 57 Active_warp 9
Core 0 stall_at_cycle 58 Active_warp 9
Core 1 stall_at_cycle 58 Active_warp 9
Core 2 stall_at_cycle 58 Active_warp 9
Core 3 stall_at_cycle 58 Active_warp 9
Core 0 stall_at_cycle 59 Active_warp 9
Core 1 stall_at_cycle 59 Active_warp 9
Core 2 stall_at_cycle 59 Active_warp 9
Core 3 stall_at_cycle 59 Active_warp 9
Core 0 stall_at_cycle 60 Active_warp 9
Core 1 stall_at_cycle 60 Active_warp 9
Core 2 stall_at_cycle 60 Active_warp 9
Core 3 stall_at_cycle 60 Active_warp 9
Core 0 stall_at_cycle 61 Active_warp 9
Core 1 stall_at_cycle 61 Active_warp 9
Core 2 stall_at_cycle 61 Active_warp 9
Core 3 stall_at_cycle 61 Active_warp 9
Core 0 stall_at_cycle 62 Active_warp 9
Core 1 stall_at_cycle 62 Active_warp 9
Core 2 stall_at_cycle 62 Active_warp 9
Core 3 stall_at_cycle 62 Active_warp 9
Core 0 stall_at_cycle 63 Active_warp 9
Core 1 stall_at_cycle 63 Active_warp 9
Core 2 stall_at_cycle 63 Active_warp 9
Core 3 stall_at_cycle 63 Active_warp 9
Core 0 stall_at_cycle 64 Active_warp 9
Core 1 stall_at_cycle 64 Active_warp 9
Core 2 stall_at_cycle 64 Active_warp 9
Core 3 stall_at_cycle 64 Active_warp 9
Core 0 stall_at_cycle 65 Active_warp 9
Core 1 stall_at_cycle 65 Active_warp 9
Core 2 stall_at_cycle 65 Active_warp 9
Core 3 stall_at_cycle 65 Active_warp 9
Core 0 stall_at_cycle 66 Active_warp 9
Core 1 stall_at_cycle 66 Active_warp 9
Core 2 stall_at_cycle 66 Active_warp 9
Core 3 stall_at_cycle 66 Active_warp 9
Core 0 stall_at_cycle 67 Active_warp 9
Core 1 stall_at_cycle 67 Active_warp 9
Core 2 stall_at_cycle 67 Active_warp 9
Core 3 stall_at_cycle 67 Active_warp 9
Core 0 stall_at_cycle 68 Active_warp 9
Core 1 stall_at_cycle 68 Active_warp 9
Core 2 stall_at_cycle 68 Active_warp 9
Core 3 stall_at_cycle 68 Active_warp 9
Core 0 stall_at_cycle 69 Active_warp 9
Core 1 stall_at_cycle 69 Active_warp 9
Core 2 stall_at_cycle 69 Active_warp 9
Core 3 stall_at_cycle 69 Active_warp 9
Core 0 stall_at_cycle 70 Active_warp 9
Core 1 stall_at_cycle 70 Active_warp 9
Core 2 stall_at_cycle 70 Active_warp 9
Core 3 stall_at_cycle 70 Active_warp 9
Core 0 stall_at_cycle 71 Active_warp 9
Core 1 stall_at_cycle 71 Active_warp 9
Core 2 stall_at_cycle 71 Active_warp 9
Core 3 stall_at_cycle 71 Active_warp 9
Core 0 stall_at_cycle 72 Active_warp 9
Core 1 stall_at_cycle 72 Active_warp 9
Core 2 stall_at_cycle 72 Active_warp 9
Core 3 stall_at_cycle 72 Active_warp 9
Core 0 stall_at_cycle 73 Active_warp 9
Core 1 stall_at_cycle 73 Active_warp 9
Core 2 stall_at_cycle 73 Active_warp 9
Core 3 stall_at_cycle 73 Active_warp 9
Core 0 stall_at_cycle 74 Active_warp 9
Core 1 stall_at_cycle 74 Active_warp 9
Core 2 stall_at_cycle 74 Active_warp 9
Core 3 stall_at_cycle 74 Active_warp 9
Core 0 stall_at_cycle 75 Active_warp 9
Core 1 stall_at_cycle 75 Active_warp 9
Core 2 stall_at_cycle 75 Active_warp 9
Core 3 stall_at_cycle 75 Active_warp 9
Core 0 stall_at_cycle 76 Active_warp 9
Core 1 stall_at_cycle 76 Active_warp 9
Core 2 stall_at_cycle 76 Active_warp 9
Core 3 stall_at_cycle 76 Active_warp 9
Core 0 stall_at_cycle 77 Active_warp 9
Core 1 stall_at_cycle 77 Active_warp 9
Core 2 stall_at_cycle 77 Active_warp 9
Core 3 stall_at_cycle 77 Active_warp 9
Core 0 stall_at_cycle 78 Active_warp 9
Core 1 stall_at_cycle 78 Active_warp 9
Core 2 stall_at_cycle 78 Active_warp 9
Core 3 stall_at_cycle 78 Active_warp 9
Core 0 stall_at_cycle 79 Active_warp 9
Core 1 stall_at_cycle 79 Active_warp 9
Core 2 stall_at_cycle 79 Active_warp 9
Core 3 stall_at_cycle 79 Active_warp 9
Core 0 stall_at_cycle 80 Active_warp 9
Core 1 stall_at_cycle 80 Active_warp 9
Core 2 stall_at_cycle 80 Active_warp 9
Core 3 stall_at_cycle 80 Active_warp 9
Core 0 stall_at_cycle 81 Active_warp 9
Core 1 stall_at_cycle 81 Active_warp 9
Core 2 stall_at_cycle 81 Active_warp 9
Core 3 stall_at_cycle 81 Active_warp 9
Core 0 stall_at_cycle 82 Active_warp 9
Core 1 stall_at_cycle 82 Active_warp 9
Core 2 stall_at_cycle 82 Active_warp 9
Core 3 stall_at_cycle 82 Active_warp 9
Core 0 stall_at_cycle 83 Active_warp 9
Core 1 stall_at_cycle 83 Active_warp 9
Core 2 stall_at_cycle 83 Active_warp 9
Core 3 stall_at_cycle 83 Active_warp 9
Core 0 stall_at_cycle 84 Active_warp 9
Core 1 stall_at_cycle 84 Active_warp 9
Core 2 stall_at_cycle 84 Active_warp 9
Core 3 stall_at_cycle 84 Active_warp 9
Core 0 stall_at_cycle 85 Active_warp 9
Core 1 stall_at_cycle 85 Active_warp 9
Core 2 stall_at_cycle 85 Active_warp 9
Core 3 stall_at_cycle 85 Active_warp 9
Core 0 stall_at_cycle 86 Active_warp 9
Core 1 stall_at_cycle 86 Active_warp 9
Core 2 stall_at_cycle 86 Active_warp 9
Core 3 stall_at_cycle 86 Active_warp 9
Core 0 stall_at_cycle 87 Active_warp 9
Core 1 stall_at_cycle 87 Active_warp 9
Core 2 stall_at_cycle 87 Active_warp 9
Core 3 stall_at_cycle 87 Active_warp 9
Core 0 stall_at_cycle 88 Active_warp 9
Core 1 stall_at_cycle 88 Active_warp 9
Core 2 stall_at_cycle 88 Active_warp 9
Core 3 stall_at_cycle 88 Active_warp 9
Core 0 stall_at_cycle 89 Active_warp 9
Core 1 stall_at_cycle 89 Active_warp 9
Core 2 stall_at_cycle 89 Active_warp 9
Core 3 stall_at_cycle 89 Active_warp 9
Core 0 stall_at_cycle 90 Active_warp 9
Core 1 stall_at_cycle 90 Active_warp 9
Core 2 stall_at_cycle 90 Active_warp 9
Core 3 stall_at_cycle 90 Active_warp 9
Core 0 stall_at_cycle 91 Active_warp 9
Core 1 stall_at_cycle 91 Active_warp 9
Core 2 stall_at_cycle 91 Active_warp 9
Core 3 stall_at_cycle 91 Active_warp 9
Core 0 stall_at_cycle 92 Active_warp 9
Core 1 stall_at_cycle 92 Active_warp 9
Core 2 stall_at_cycle 92 Active_warp 9
Core 3 stall_at_cycle 92 Active_warp 9
Core 0 stall_at_cycle 93 Active_warp 9
Core 1 stall_at_cycle 93 Active_warp 9
Core 2 stall_at_cycle 93 Active_warp 9
Core 3 stall_at_cycle 93 Active_warp 9
Core 0 stall_at_cycle 94 Active_warp 9
Core 1 stall_at_cycle 94 Active_warp 9
Core 2 stall_at_cycle 94 Active_warp 9
Core 3 stall_at_cycle 94 Active_warp 9
Core 0 stall_at_cycle 95 Active_warp 9
Core 1 stall_at_cycle 95 Active_warp 9
Core 2 stall_at_cycle 95 Active_warp 9
Core 3 stall_at_cycle 95 Active_warp 9
Core 0 stall_at_cycle 96 Active_warp 9
Core 1 stall_at_cycle 96 Active_warp 9
Core 2 stall_at_cycle 96 Active_warp 9
Core 3 stall_at_cycle 96 Active_warp 9
Core 0 stall_at_cycle 97 Active_warp 9
Core 1 stall_at_cycle 97 Active_warp 9
Core 2 stall_at_cycle 97 Active_warp 9
Core 3 stall_at_cycle 97 Active_warp 9
Core 0 stall_at_cycle 98 Active_warp 9
Core 1 stall_at_cycle 98 Active_warp 9
Core 2 stall_at_cycle 98 Active_warp 9
Core 3 stall_at_cycle 98 Active_warp 9
Core 0 stall_at_cycle 99 Active_warp 9
Core 1 stall_at_cycle 99 Active_warp 9
Core 2 stall_at_cycle 99 Active_warp 9
Core 3 stall_at_cycle 99 Active_warp 9
Core 0 stall_at_cycle 100 Active_warp 9
Core 1 stall_at_cycle 100 Active_warp 9
Core 2 stall_at_cycle 100 Active_warp 9
Core 3 stall_at_cycle 100 Active_warp 9
Core 0 stall_at_cycle 101 Active_warp 9
Core 1 stall_at_cycle 101 Active_warp 9
Core 2 stall_at_cycle 101 Active_warp 9
Core 3 stall_at_cycle 101 Active_warp 9
Core 0 stall_at_cycle 102 Active_warp 9
Core 1 stall_at_cycle 102 Active_warp 9
Core 2 stall_at_cycle 102 Active_warp 9
Core 3 stall_at_cycle 102 Active_warp 9
Core 0 stall_at_cycle 103 Active_warp 9
Core 1 stall_at_cycle 103 Active_warp 9
Core 2 stall_at_cycle 103 Active_warp 9
Core 3 stall_at_cycle 103 Active_warp 9
Core 0 stall_at_cycle 104 Active_warp 9
Core 1 stall_at_cycle 104 Active_warp 9
Core 2 stall_at_cycle 104 Active_warp 9
Core 3 stall_at_cycle 104 Active_warp 9
Core 0 stall_at_cycle 105 Active_warp 9
Core 1 stall_at_cycle 105 Active_warp 9
Core 2 stall_at_cycle 105 Active_warp 9
Core 3 stall_at_cycle 105 Active_warp 9
Core 0 stall_at_cycle 106 Active_warp 9
Core 1 stall_at_cycle 106 Active_warp 9
Core 2 stall_at_cycle 106 Active_warp 9
Core 3 stall_at_cycle 106 Active_warp 9
Core 0 stall_at_cycle 107 Active_warp 9
Core 1 stall_at_cycle 107 Active_warp 9
Core 2 stall_at_cycle 107 Active_warp 9
Core 3 stall_at_cycle 107 Active_warp 9
Core 0 stall_at_cycle 108 Active_warp 9
Core 1 stall_at_cycle 108 Active_warp 9
Core 2 stall_at_cycle 108 Active_warp 9
Core 3 stall_at_cycle 108 Active_warp 9
Core 0 stall_at_cycle 109 Active_warp 9
Core 1 stall_at_cycle 109 Active_warp 9
Core 2 stall_at_cycle 109 Active_warp 9
Core 3 stall_at_cycle 109 Active_warp 9
Core 0 stall_at_cycle 110 Active_warp 9
Core 1 stall_at_cycle 110 Active_warp 9
Core 2 stall_at_cycle 110 Active_warp 9
Core 3 stall_at_cycle 110 Active_warp 9
Core 0 stall_at_cycle 111 Active_warp 9
Core 1 stall_at_cycle 111 Active_warp 9
Core 2 stall_at_cycle 111 Active_warp 9
Core 3 stall_at_cycle 111 Active_warp 9
Core 0 stall_at_cycle 112 Active_warp 9
Core 1 stall_at_cycle 112 Active_warp 9
Core 2 stall_at_cycle 112 Active_warp 9
Core 3 stall_at_cycle 112 Active_warp 9
Core 0 stall_at_cycle 113 Active_warp 9
Core 1 stall_at_cycle 113 Active_warp 9
Core 2 stall_at_cycle 113 Active_warp 9
Core 3 stall_at_cycle 113 Active_warp 9
Core 0 stall_at_cycle 114 Active_warp 9
Core 1 stall_at_cycle 114 Active_warp 9
Core 2 stall_at_cycle 114 Active_warp 9
Core 3 stall_at_cycle 114 Active_warp 9
Core 0 stall_at_cycle 115 Active_warp 9
Core 1 stall_at_cycle 115 Active_warp 9
Core 2 stall_at_cycle 115 Active_warp 9
Core 3 stall_at_cycle 115 Active_warp 9
Core 0 stall_at_cycle 116 Active_warp 9
Core 1 stall_at_cycle 116 Active_warp 9
Core 2 stall_at_cycle 116 Active_warp 9
Core 3 stall_at_cycle 116 Active_warp 9
Core 0 stall_at_cycle 117 Active_warp 9
Core 1 stall_at_cycle 117 Active_warp 9
Core 2 stall_at_cycle 117 Active_warp 9
Core 3 stall_at_cycle 117 Active_warp 9
Core 0 stall_at_cycle 118 Active_warp 9
Core 1 stall_at_cycle 118 Active_warp 9
Core 2 stall_at_cycle 118 Active_warp 9
Core 3 stall_at_cycle 118 Active_warp 9
Core 0 stall_at_cycle 119 Active_warp 9
Core 1 stall_at_cycle 119 Active_warp 9
Core 2 stall_at_cycle 119 Active_warp 9
Core 3 stall_at_cycle 119 Active_warp 9
Core 0 stall_at_cycle 120 Active_warp 9
Core 1 stall_at_cycle 120 Active_warp 9
Core 2 stall_at_cycle 120 Active_warp 9
Core 3 stall_at_cycle 120 Active_warp 9
Core 0 stall_at_cycle 121 Active_warp 9
Core 1 stall_at_cycle 121 Active_warp 9
Core 2 stall_at_cycle 121 Active_warp 9
Core 3 stall_at_cycle 121 Active_warp 9
Core 0 stall_at_cycle 122 Active_warp 9
Core 1 stall_at_cycle 122 Active_warp 9
Core 2 stall_at_cycle 122 Active_warp 9
Core 3 stall_at_cycle 122 Active_warp 9
Core 0 stall_at_cycle 123 Active_warp 9
Core 1 stall_at_cycle 123 Active_warp 9
Core 2 stall_at_cycle 123 Active_warp 9
Core 3 stall_at_cycle 123 Active_warp 9
Core 0 stall_at_cycle 124 Active_warp 9
Core 1 stall_at_cycle 124 Active_warp 9
Core 2 stall_at_cycle 124 Active_warp 9
Core 3 stall_at_cycle 124 Active_warp 9
Core 0 stall_at_cycle 125 Active_warp 9
Core 1 stall_at_cycle 125 Active_warp 9
Core 2 stall_at_cycle 125 Active_warp 9
Core 3 stall_at_cycle 125 Active_warp 9
Core 0 stall_at_cycle 126 Active_warp 9
Core 1 stall_at_cycle 126 Active_warp 9
Core 2 stall_at_cycle 126 Active_warp 9
Core 3 stall_at_cycle 126 Active_warp 9
Core 0 stall_at_cycle 127 Active_warp 9
Core 1 stall_at_cycle 127 Active_warp 9
Core 2 stall_at_cycle 127 Active_warp 9
Core 3 stall_at_cycle 127 Active_warp 9
Core 0 stall_at_cycle 128 Active_warp 9
Core 1 stall_at_cycle 128 Active_warp 9
Core 2 stall_at_cycle 128 Active_warp 9
Core 3 stall_at_cycle 128 Active_warp 9
Core 0 stall_at_cycle 129 Active_warp 9
Core 1 stall_at_cycle 129 Active_warp 9
Core 2 stall_at_cycle 129 Active_warp 9
Core 3 stall_at_cycle 129 Active_warp 9
Core 0 stall_at_cycle 130 Active_warp 9
Core 1 stall_at_cycle 130 Active_warp 9
Core 2 stall_at_cycle 130 Active_warp 9
Core 3 stall_at_cycle 130 Active_warp 9
Core 0 stall_at_cycle 131 Active_warp 9
Core 1 stall_at_cycle 131 Active_warp 9
Core 2 stall_at_cycle 131 Active_warp 9
Core 3 stall_at_cycle 131 Active_warp 9
Core 0 stall_at_cycle 132 Active_warp 9
Core 1 stall_at_cycle 132 Active_warp 9
Core 2 stall_at_cycle 132 Active_warp 9
Core 3 stall_at_cycle 132 Active_warp 9
Core 0 stall_at_cycle 133 Active_warp 9
Core 1 stall_at_cycle 133 Active_warp 9
Core 2 stall_at_cycle 133 Active_warp 9
Core 3 stall_at_cycle 133 Active_warp 9
Core 0 stall_at_cycle 134 Active_warp 9
Core 1 stall_at_cycle 134 Active_warp 9
Core 2 stall_at_cycle 134 Active_warp 9
Core 3 stall_at_cycle 134 Active_warp 9
Core 0 stall_at_cycle 135 Active_warp 9
Core 1 stall_at_cycle 135 Active_warp 9
Core 2 stall_at_cycle 135 Active_warp 9
Core 3 stall_at_cycle 135 Active_warp 9
Core 0 stall_at_cycle 136 Active_warp 9
Core 1 stall_at_cycle 136 Active_warp 9
Core 2 stall_at_cycle 136 Active_warp 9
Core 3 stall_at_cycle 136 Active_warp 9
Core 0 stall_at_cycle 137 Active_warp 9
Core 1 stall_at_cycle 137 Active_warp 9
Core 2 stall_at_cycle 137 Active_warp 9
Core 3 stall_at_cycle 137 Active_warp 9
Core 0 stall_at_cycle 138 Active_warp 9
Core 1 stall_at_cycle 138 Active_warp 9
Core 2 stall_at_cycle 138 Active_warp 9
Core 3 stall_at_cycle 138 Active_warp 9
Core 0 stall_at_cycle 139 Active_warp 9
Core 1 stall_at_cycle 139 Active_warp 9
Core 2 stall_at_cycle 139 Active_warp 9
Core 3 stall_at_cycle 139 Active_warp 9
Core 0 stall_at_cycle 140 Active_warp 9
Core 1 stall_at_cycle 140 Active_warp 9
Core 2 stall_at_cycle 140 Active_warp 9
Core 3 stall_at_cycle 140 Active_warp 9
Core 0 stall_at_cycle 141 Active_warp 9
Core 1 stall_at_cycle 141 Active_warp 9
Core 2 stall_at_cycle 141 Active_warp 9
Core 3 stall_at_cycle 141 Active_warp 9
Core 0 stall_at_cycle 142 Active_warp 9
Core 1 stall_at_cycle 142 Active_warp 9
Core 2 stall_at_cycle 142 Active_warp 9
Core 3 stall_at_cycle 142 Active_warp 9
Core 0 stall_at_cycle 143 Active_warp 9
Core 1 stall_at_cycle 143 Active_warp 9
Core 2 stall_at_cycle 143 Active_warp 9
Core 3 stall_at_cycle 143 Active_warp 9
Core 0 stall_at_cycle 144 Active_warp 9
Core 1 stall_at_cycle 144 Active_warp 9
Core 2 stall_at_cycle 144 Active_warp 9
Core 3 stall_at_cycle 144 Active_warp 9
Core 0 stall_at_cycle 145 Active_warp 9
Core 1 stall_at_cycle 145 Active_warp 9
Core 2 stall_at_cycle 145 Active_warp 9
Core 3 stall_at_cycle 145 Active_warp 9
Core 0 stall_at_cycle 146 Active_warp 9
Core 1 stall_at_cycle 146 Active_warp 9
Core 2 stall_at_cycle 146 Active_warp 9
Core 3 stall_at_cycle 146 Active_warp 9
Core 0 stall_at_cycle 147 Active_warp 9
Core 1 stall_at_cycle 147 Active_warp 9
Core 2 stall_at_cycle 147 Active_warp 9
Core 3 stall_at_cycle 147 Active_warp 9
Core 0 stall_at_cycle 148 Active_warp 9
Core 1 stall_at_cycle 148 Active_warp 9
Core 2 stall_at_cycle 148 Active_warp 9
Core 3 stall_at_cycle 148 Active_warp 9
Core 0 stall_at_cycle 149 Active_warp 9
Core 1 stall_at_cycle 149 Active_warp 9
Core 2 stall_at_cycle 149 Active_warp 9
Core 3 stall_at_cycle 149 Active_warp 9
Core 0 stall_at_cycle 150 Active_warp 9
Core 1 stall_at_cycle 150 Active_warp 9
Core 2 stall_at_cycle 150 Active_warp 9
Core 3 stall_at_cycle 150 Active_warp 9
Core 0 stall_at_cycle 151 Active_warp 9
Core 1 stall_at_cycle 151 Active_warp 9
Core 2 stall_at_cycle 151 Active_warp 9
Core 3 stall_at_cycle 151 Active_warp 9
Core 0 stall_at_cycle 152 Active_warp 9
Core 1 stall_at_cycle 152 Active_warp 9
Core 2 stall_at_cycle 152 Active_warp 9
Core 3 stall_at_cycle 152 Active_warp 9
Core 0 stall_at_cycle 153 Active_warp 9
Core 1 stall_at_cycle 153 Active_warp 9
Core 2 stall_at_cycle 153 Active_warp 9
Core 3 stall_at_cycle 153 Active_warp 9
Core 0 stall_at_cycle 154 Active_warp 9
Core 1 stall_at_cycle 154 Active_warp 9
Core 2 stall_at_cycle 154 Active_warp 9
Core 3 stall_at_cycle 154 Active_warp 9
Core 0 stall_at_cycle 155 Active_warp 9
Core 1 stall_at_cycle 155 Active_warp 9
Core 2 stall_at_cycle 155 Active_warp 9
Core 3 stall_at_cycle 155 Active_warp 9
Core 0 stall_at_cycle 156 Active_warp 9
Core 1 stall_at_cycle 156 Active_warp 9
Core 2 stall_at_cycle 156 Active_warp 9
Core 3 stall_at_cycle 156 Active_warp 9
Core 0 stall_at_cycle 157 Active_warp 9
Core 1 stall_at_cycle 157 Active_warp 9
Core 2 stall_at_cycle 157 Active_warp 9
Core 3 stall_at_cycle 157 Active_warp 9
Core 0 stall_at_cycle 158 Active_warp 9
Core 1 stall_at_cycle 158 Active_warp 9
Core 2 stall_at_cycle 158 Active_warp 9
Core 3 stall_at_cycle 158 Active_warp 9
Core 0 stall_at_cycle 159 Active_warp 9
Core 1 stall_at_cycle 159 Active_warp 9
Core 2 stall_at_cycle 159 Active_warp 9
Core 3 stall_at_cycle 159 Active_warp 9
Core 0 stall_at_cycle 160 Active_warp 9
Core 1 stall_at_cycle 160 Active_warp 9
Core 2 stall_at_cycle 160 Active_warp 9
Core 3 stall_at_cycle 160 Active_warp 9
Core 0 stall_at_cycle 161 Active_warp 9
Core 1 stall_at_cycle 161 Active_warp 9
Core 2 stall_at_cycle 161 Active_warp 9
Core 3 stall_at_cycle 161 Active_warp 9
Core 0 stall_at_cycle 162 Active_warp 9
Core 1 stall_at_cycle 162 Active_warp 9
Core 2 stall_at_cycle 162 Active_warp 9
Core 3 stall_at_cycle 162 Active_warp 9
Core 0 stall_at_cycle 163 Active_warp 9
Core 1 stall_at_cycle 163 Active_warp 9
Core 2 stall_at_cycle 163 Active_warp 9
Core 3 stall_at_cycle 163 Active_warp 9
Core 0 stall_at_cycle 164 Active_warp 9
Core 1 stall_at_cycle 164 Active_warp 9
Core 2 stall_at_cycle 164 Active_warp 9
Core 3 stall_at_cycle 164 Active_warp 9
Core 0 stall_at_cycle 165 Active_warp 9
Core 1 stall_at_cycle 165 Active_warp 9
Core 2 stall_at_cycle 165 Active_warp 9
Core 3 stall_at_cycle 165 Active_warp 9
Core 0 stall_at_cycle 166 Active_warp 9
Core 1 stall_at_cycle 166 Active_warp 9
Core 2 stall_at_cycle 166 Active_warp 9
Core 3 stall_at_cycle 166 Active_warp 9
Core 0 stall_at_cycle 167 Active_warp 9
Core 1 stall_at_cycle 167 Active_warp 9
Core 2 stall_at_cycle 167 Active_warp 9
Core 3 stall_at_cycle 167 Active_warp 9
Core 0 stall_at_cycle 168 Active_warp 9
Core 1 stall_at_cycle 168 Active_warp 9
Core 2 stall_at_cycle 168 Active_warp 9
Core 3 stall_at_cycle 168 Active_warp 9
Core 0 stall_at_cycle 169 Active_warp 9
Core 1 stall_at_cycle 169 Active_warp 9
Core 2 stall_at_cycle 169 Active_warp 9
Core 3 stall_at_cycle 169 Active_warp 9
Core 0 stall_at_cycle 170 Active_warp 9
Core 1 stall_at_cycle 170 Active_warp 9
Core 2 stall_at_cycle 170 Active_warp 9
Core 3 stall_at_cycle 170 Active_warp 9
Core 0 stall_at_cycle 171 Active_warp 9
Core 1 stall_at_cycle 171 Active_warp 9
Core 2 stall_at_cycle 171 Active_warp 9
Core 3 stall_at_cycle 171 Active_warp 9
Core 0 stall_at_cycle 172 Active_warp 9
Core 1 stall_at_cycle 172 Active_warp 9
Core 2 stall_at_cycle 172 Active_warp 9
Core 3 stall_at_cycle 172 Active_warp 9
Core 0 stall_at_cycle 173 Active_warp 9
Core 1 stall_at_cycle 173 Active_warp 9
Core 2 stall_at_cycle 173 Active_warp 9
Core 3 stall_at_cycle 173 Active_warp 9
Core 0 stall_at_cycle 174 Active_warp 9
Core 1 stall_at_cycle 174 Active_warp 9
Core 2 stall_at_cycle 174 Active_warp 9
Core 3 stall_at_cycle 174 Active_warp 9
Core 0 stall_at_cycle 175 Active_warp 9
Core 1 stall_at_cycle 175 Active_warp 9
Core 2 stall_at_cycle 175 Active_warp 9
Core 3 stall_at_cycle 175 Active_warp 9
Core 0 stall_at_cycle 176 Active_warp 9
Core 1 stall_at_cycle 176 Active_warp 9
Core 2 stall_at_cycle 176 Active_warp 9
Core 3 stall_at_cycle 176 Active_warp 9
Core 0 stall_at_cycle 177 Active_warp 9
Core 1 stall_at_cycle 177 Active_warp 9
Core 2 stall_at_cycle 177 Active_warp 9
Core 3 stall_at_cycle 177 Active_warp 9
Core 0 stall_at_cycle 178 Active_warp 9
Core 1 stall_at_cycle 178 Active_warp 9
Core 2 stall_at_cycle 178 Active_warp 9
Core 3 stall_at_cycle 178 Active_warp 9
Core 0 stall_at_cycle 179 Active_warp 9
Core 1 stall_at_cycle 179 Active_warp 9
Core 2 stall_at_cycle 179 Active_warp 9
Core 3 stall_at_cycle 179 Active_warp 9
Core 0 stall_at_cycle 180 Active_warp 9
Core 1 stall_at_cycle 180 Active_warp 9
Core 2 stall_at_cycle 180 Active_warp 9
Core 3 stall_at_cycle 180 Active_warp 9
Core 0 stall_at_cycle 181 Active_warp 9
Core 1 stall_at_cycle 181 Active_warp 9
Core 2 stall_at_cycle 181 Active_warp 9
Core 3 stall_at_cycle 181 Active_warp 9
Core 0 stall_at_cycle 182 Active_warp 9
Core 1 stall_at_cycle 182 Active_warp 9
Core 2 stall_at_cycle 182 Active_warp 9
Core 3 stall_at_cycle 182 Active_warp 9
Core 0 stall_at_cycle 183 Active_warp 9
Core 1 stall_at_cycle 183 Active_warp 9
Core 2 stall_at_cycle 183 Active_warp 9
Core 3 stall_at_cycle 183 Active_warp 9
Core 0 stall_at_cycle 184 Active_warp 9
Core 1 stall_at_cycle 184 Active_warp 9
Core 2 stall_at_cycle 184 Active_warp 9
Core 3 stall_at_cycle 184 Active_warp 9
Core 0 stall_at_cycle 185 Active_warp 9
Core 1 stall_at_cycle 185 Active_warp 9
Core 2 stall_at_cycle 185 Active_warp 9
Core 3 stall_at_cycle 185 Active_warp 9
Core 0 stall_at_cycle 186 Active_warp 9
Core 1 stall_at_cycle 186 Active_warp 9
Core 2 stall_at_cycle 186 Active_warp 9
Core 3 stall_at_cycle 186 Active_warp 9
Core 0 stall_at_cycle 187 Active_warp 9
Core 1 stall_at_cycle 187 Active_warp 9
Core 2 stall_at_cycle 187 Active_warp 9
Core 3 stall_at_cycle 187 Active_warp 9
Core 0 stall_at_cycle 188 Active_warp 9
Core 1 stall_at_cycle 188 Active_warp 9
Core 2 stall_at_cycle 188 Active_warp 9
Core 3 stall_at_cycle 188 Active_warp 9
Core 0 stall_at_cycle 189 Active_warp 9
Core 1 stall_at_cycle 189 Active_warp 9
Core 2 stall_at_cycle 189 Active_warp 9
Core 3 stall_at_cycle 189 Active_warp 9
Core 0 stall_at_cycle 190 Active_warp 9
Core 1 stall_at_cycle 190 Active_warp 9
Core 2 stall_at_cycle 190 Active_warp 9
Core 3 stall_at_cycle 190 Active_warp 9
Core 0 stall_at_cycle 191 Active_warp 9
Core 1 stall_at_cycle 191 Active_warp 9
Core 2 stall_at_cycle 191 Active_warp 9
Core 3 stall_at_cycle 191 Active_warp 9
Core 0 stall_at_cycle 192 Active_warp 9
Core 1 stall_at_cycle 192 Active_warp 9
Core 2 stall_at_cycle 192 Active_warp 9
Core 3 stall_at_cycle 192 Active_warp 9
Core 0 stall_at_cycle 193 Active_warp 9
Core 1 stall_at_cycle 193 Active_warp 9
Core 2 stall_at_cycle 193 Active_warp 9
Core 3 stall_at_cycle 193 Active_warp 9
Core 0 stall_at_cycle 194 Active_warp 9
Core 1 stall_at_cycle 194 Active_warp 9
Core 2 stall_at_cycle 194 Active_warp 9
Core 3 stall_at_cycle 194 Active_warp 9
Core 0 stall_at_cycle 195 Active_warp 9
Core 1 stall_at_cycle 195 Active_warp 9
Core 2 stall_at_cycle 195 Active_warp 9
Core 3 stall_at_cycle 195 Active_warp 9
Core 0 stall_at_cycle 196 Active_warp 9
Core 1 stall_at_cycle 196 Active_warp 9
Core 2 stall_at_cycle 196 Active_warp 9
Core 3 stall_at_cycle 196 Active_warp 9
Core 0 stall_at_cycle 197 Active_warp 9
Core 1 stall_at_cycle 197 Active_warp 9
Core 2 stall_at_cycle 197 Active_warp 9
Core 3 stall_at_cycle 197 Active_warp 9
Core 0 stall_at_cycle 198 Active_warp 9
Core 1 stall_at_cycle 198 Active_warp 9
Core 2 stall_at_cycle 198 Active_warp 9
Core 3 stall_at_cycle 198 Active_warp 9
Core 0 stall_at_cycle 199 Active_warp 9
Core 1 stall_at_cycle 199 Active_warp 9
Core 2 stall_at_cycle 199 Active_warp 9
Core 3 stall_at_cycle 199 Active_warp 9
Core 0 stall_at_cycle 200 Active_warp 9
Core 1 stall_at_cycle 200 Active_warp 9
Core 2 stall_at_cycle 200 Active_warp 9
Core 3 stall_at_cycle 200 Active_warp 9
Core 0 stall_at_cycle 201 Active_warp 9
Core 1 stall_at_cycle 201 Active_warp 9
Core 2 stall_at_cycle 201 Active_warp 9
Core 3 stall_at_cycle 201 Active_warp 9
Core 0 stall_at_cycle 202 Active_warp 9
Core 1 stall_at_cycle 202 Active_warp 9
Core 2 stall_at_cycle 202 Active_warp 9
Core 3 stall_at_cycle 202 Active_warp 9
Core 0 stall_at_cycle 203 Active_warp 9
Core 1 stall_at_cycle 203 Active_warp 9
Core 2 stall_at_cycle 203 Active_warp 9
Core 3 stall_at_cycle 203 Active_warp 9
Core 0 stall_at_cycle 204 Active_warp 9
Core 1 stall_at_cycle 204 Active_warp 9
Core 2 stall_at_cycle 204 Active_warp 9
Core 3 stall_at_cycle 204 Active_warp 9
Core 0 stall_at_cycle 205 Active_warp 9
Core 1 stall_at_cycle 205 Active_warp 9
Core 2 stall_at_cycle 205 Active_warp 9
Core 3 stall_at_cycle 205 Active_warp 9
Core 0 stall_at_cycle 206 Active_warp 9
Core 1 stall_at_cycle 206 Active_warp 9
Core 2 stall_at_cycle 206 Active_warp 9
Core 3 stall_at_cycle 206 Active_warp 9
Core 0 stall_at_cycle 207 Active_warp 9
Core 1 stall_at_cycle 207 Active_warp 9
Core 2 stall_at_cycle 207 Active_warp 9
Core 3 stall_at_cycle 207 Active_warp 9
Core 0 stall_at_cycle 208 Active_warp 9
Core 1 stall_at_cycle 208 Active_warp 9
Core 2 stall_at_cycle 208 Active_warp 9
Core 3 stall_at_cycle 208 Active_warp 9
Core 0 stall_at_cycle 209 Active_warp 9
Core 1 stall_at_cycle 209 Active_warp 9
Core 2 stall_at_cycle 209 Active_warp 9
Core 3 stall_at_cycle 209 Active_warp 9
Core 0 stall_at_cycle 210 Active_warp 9
Core 1 stall_at_cycle 210 Active_warp 9
Core 2 stall_at_cycle 210 Active_warp 9
Core 3 stall_at_cycle 210 Active_warp 9
Core 0 stall_at_cycle 211 Active_warp 9
Core 1 stall_at_cycle 211 Active_warp 9
Core 2 stall_at_cycle 211 Active_warp 9
Core 3 stall_at_cycle 211 Active_warp 9
Core 0 stall_at_cycle 212 Active_warp 9
Core 1 stall_at_cycle 212 Active_warp 9
Core 2 stall_at_cycle 212 Active_warp 9
Core 3 stall_at_cycle 212 Active_warp 9
Core 0 stall_at_cycle 213 Active_warp 9
Core 1 stall_at_cycle 213 Active_warp 9
Core 2 stall_at_cycle 213 Active_warp 9
Core 3 stall_at_cycle 213 Active_warp 9
Core 0 stall_at_cycle 214 Active_warp 9
Core 1 stall_at_cycle 214 Active_warp 9
Core 2 stall_at_cycle 214 Active_warp 9
Core 3 stall_at_cycle 214 Active_warp 9
Core 0 stall_at_cycle 215 Active_warp 9
Core 1 stall_at_cycle 215 Active_warp 9
Core 2 stall_at_cycle 215 Active_warp 9
Core 3 stall_at_cycle 215 Active_warp 9
Core 0 stall_at_cycle 216 Active_warp 9
Core 1 stall_at_cycle 216 Active_warp 9
Core 2 stall_at_cycle 216 Active_warp 9
Core 3 stall_at_cycle 216 Active_warp 9
Core 0 stall_at_cycle 217 Active_warp 9
Core 1 stall_at_cycle 217 Active_warp 9
Core 2 stall_at_cycle 217 Active_warp 9
Core 3 stall_at_cycle 217 Active_warp 9
Core 0 stall_at_cycle 218 Active_warp 9
Core 1 stall_at_cycle 218 Active_warp 9
Core 2 stall_at_cycle 218 Active_warp 9
Core 3 stall_at_cycle 218 Active_warp 9
Core 0 stall_at_cycle 219 Active_warp 9
Core 1 stall_at_cycle 219 Active_warp 9
Core 2 stall_at_cycle 219 Active_warp 9
Core 3 stall_at_cycle 219 Active_warp 9
Core 0 stall_at_cycle 220 Active_warp 9
Core 1 stall_at_cycle 220 Active_warp 9
Core 2 stall_at_cycle 220 Active_warp 9
Core 3 stall_at_cycle 220 Active_warp 9
Core 0 stall_at_cycle 221 Active_warp 9
Core 1 stall_at_cycle 221 Active_warp 9
Core 2 stall_at_cycle 221 Active_warp 9
Core 3 stall_at_cycle 221 Active_warp 9
Core 0 stall_at_cycle 222 Active_warp 9
Core 1 stall_at_cycle 222 Active_warp 9
Core 2 stall_at_cycle 222 Active_warp 9
Core 3 stall_at_cycle 222 Active_warp 9
Core 0 stall_at_cycle 223 Active_warp 9
Core 1 stall_at_cycle 223 Active_warp 9
Core 2 stall_at_cycle 223 Active_warp 9
Core 3 stall_at_cycle 223 Active_warp 9
Core 0 stall_at_cycle 224 Active_warp 9
Core 1 stall_at_cycle 224 Active_warp 9
Core 2 stall_at_cycle 224 Active_warp 9
Core 3 stall_at_cycle 224 Active_warp 9
Core 0 stall_at_cycle 225 Active_warp 9
Core 1 stall_at_cycle 225 Active_warp 9
Core 2 stall_at_cycle 225 Active_warp 9
Core 3 stall_at_cycle 225 Active_warp 9
Core 0 stall_at_cycle 226 Active_warp 9
Core 1 stall_at_cycle 226 Active_warp 9
Core 2 stall_at_cycle 226 Active_warp 9
Core 3 stall_at_cycle 226 Active_warp 9
Core 0 stall_at_cycle 227 Active_warp 9
Core 1 stall_at_cycle 227 Active_warp 9
Core 2 stall_at_cycle 227 Active_warp 9
Core 3 stall_at_cycle 227 Active_warp 9
Core 0 stall_at_cycle 228 Active_warp 9
Core 1 stall_at_cycle 228 Active_warp 9
Core 2 stall_at_cycle 228 Active_warp 9
Core 3 stall_at_cycle 228 Active_warp 9
Core 0 stall_at_cycle 229 Active_warp 9
Core 1 stall_at_cycle 229 Active_warp 9
Core 2 stall_at_cycle 229 Active_warp 9
Core 3 stall_at_cycle 229 Active_warp 9
Core 0 stall_at_cycle 230 Active_warp 9
Core 1 stall_at_cycle 230 Active_warp 9
Core 2 stall_at_cycle 230 Active_warp 9
Core 3 stall_at_cycle 230 Active_warp 9
Core 0 stall_at_cycle 231 Active_warp 9
Core 1 stall_at_cycle 231 Active_warp 9
Core 2 stall_at_cycle 231 Active_warp 9
Core 3 stall_at_cycle 231 Active_warp 9
Core 0 stall_at_cycle 232 Active_warp 9
Core 1 stall_at_cycle 232 Active_warp 9
Core 2 stall_at_cycle 232 Active_warp 9
Core 3 stall_at_cycle 232 Active_warp 9
Core 0 stall_at_cycle 233 Active_warp 9
Core 1 stall_at_cycle 233 Active_warp 9
Core 2 stall_at_cycle 233 Active_warp 9
Core 3 stall_at_cycle 233 Active_warp 9
Core 0 stall_at_cycle 234 Active_warp 9
Core 1 stall_at_cycle 234 Active_warp 9
Core 2 stall_at_cycle 234 Active_warp 9
Core 3 stall_at_cycle 234 Active_warp 9
Core 0 stall_at_cycle 235 Active_warp 9
Core 1 stall_at_cycle 235 Active_warp 9
Core 2 stall_at_cycle 235 Active_warp 9
Core 3 stall_at_cycle 235 Active_warp 9
Core 0 stall_at_cycle 236 Active_warp 9
Core 1 stall_at_cycle 236 Active_warp 9
Core 2 stall_at_cycle 236 Active_warp 9
Core 3 stall_at_cycle 236 Active_warp 9
Core 0 stall_at_cycle 237 Active_warp 9
Core 1 stall_at_cycle 237 Active_warp 9
Core 2 stall_at_cycle 237 Active_warp 9
Core 3 stall_at_cycle 237 Active_warp 9
Core 0 stall_at_cycle 238 Active_warp 9
Core 1 stall_at_cycle 238 Active_warp 9
Core 2 stall_at_cycle 238 Active_warp 9
Core 3 stall_at_cycle 238 Active_warp 9
Core 0 stall_at_cycle 239 Active_warp 9
Core 1 stall_at_cycle 239 Active_warp 9
Core 2 stall_at_cycle 239 Active_warp 9
Core 3 stall_at_cycle 239 Active_warp 9
Core 0 stall_at_cycle 240 Active_warp 9
Core 1 stall_at_cycle 240 Active_warp 9
Core 2 stall_at_cycle 240 Active_warp 9
Core 3 stall_at_cycle 240 Active_warp 9
Core 0 stall_at_cycle 241 Active_warp 9
Core 1 stall_at_cycle 241 Active_warp 9
Core 2 stall_at_cycle 241 Active_warp 9
Core 3 stall_at_cycle 241 Active_warp 9
Core 0 stall_at_cycle 242 Active_warp 9
Core 1 stall_at_cycle 242 Active_warp 9
Core 2 stall_at_cycle 242 Active_warp 9
Core 3 stall_at_cycle 242 Active_warp 9
Core 0 stall_at_cycle 243 Active_warp 9
Core 1 stall_at_cycle 243 Active_warp 9
Core 2 stall_at_cycle 243 Active_warp 9
Core 3 stall_at_cycle 243 Active_warp 9
Core 0 stall_at_cycle 244 Active_warp 9
Core 1 stall_at_cycle 244 Active_warp 9
Core 2 stall_at_cycle 244 Active_warp 9
Core 3 stall_at_cycle 244 Active_warp 9
Core 0 stall_at_cycle 245 Active_warp 9
Core 1 stall_at_cycle 245 Active_warp 9
Core 2 stall_at_cycle 245 Active_warp 9
Core 3 stall_at_cycle 245 Active_warp 9
Core 0 stall_at_cycle 246 Active_warp 9
Core 1 stall_at_cycle 246 Active_warp 9
Core 2 stall_at_cycle 246 Active_warp 9
Core 3 stall_at_cycle 246 Active_warp 9
Core 0 stall_at_cycle 247 Active_warp 9
Core 1 stall_at_cycle 247 Active_warp 9
Core 2 stall_at_cycle 247 Active_warp 9
Core 3 stall_at_cycle 247 Active_warp 9
Core 0 stall_at_cycle 248 Active_warp 9
Core 1 stall_at_cycle 248 Active_warp 9
Core 2 stall_at_cycle 248 Active_warp 9
Core 3 stall_at_cycle 248 Active_warp 9
Core 0 stall_at_cycle 249 Active_warp 9
Core 1 stall_at_cycle 249 Active_warp 9
Core 2 stall_at_cycle 249 Active_warp 9
Core 3 stall_at_cycle 249 Active_warp 9
Core 0 stall_at_cycle 250 Active_warp 9
Core 1 stall_at_cycle 250 Active_warp 9
Core 2 stall_at_cycle 250 Active_warp 9
Core 3 stall_at_cycle 250 Active_warp 9
Core 0 stall_at_cycle 251 Active_warp 9
Core 1 stall_at_cycle 251 Active_warp 9
Core 2 stall_at_cycle 251 Active_warp 9
Core 3 stall_at_cycle 251 Active_warp 9
Core 0 stall_at_cycle 252 Active_warp 9
Core 1 stall_at_cycle 252 Active_warp 9
Core 2 stall_at_cycle 252 Active_warp 9
Core 3 stall_at_cycle 252 Active_warp 9
Core 0 stall_at_cycle 253 Active_warp 9
Core 1 stall_at_cycle 253 Active_warp 9
Core 2 stall_at_cycle 253 Active_warp 9
Core 3 stall_at_cycle 253 Active_warp 9
Core 0 stall_at_cycle 254 Active_warp 9
Core 1 stall_at_cycle 254 Active_warp 9
Core 2 stall_at_cycle 254 Active_warp 9
Core 3 stall_at_cycle 254 Active_warp 9
Core 1 stall_at_cycle 255 Active_warp 9
Core 2 stall_at_cycle 255 Active_warp 9
Core 3 stall_at_cycle 255 Active_warp 9
Core 1 stall_at_cycle 256 Active_warp 9
Core 2 stall_at_cycle 256 Active_warp 9
Core 3 stall_at_cycle 256 Active_warp 9
Core 2 stall_at_cycle 257 Active_warp 9
Core 3 stall_at_cycle 257 Active_warp 9
Core 2 stall_at_cycle 258 Active_warp 9
Core 3 stall_at_cycle 258 Active_warp 9
Core 2 stall_at_cycle 259 Active_warp 9
Core 3 stall_at_cycle 259 Active_warp 9
Core 3 stall_at_cycle 260 Active_warp 9
Core 3 stall_at_cycle 261 Active_warp 9
Core 0 stall_at_cycle 292 Active_warp 9
Core 0 stall_at_cycle 293 Active_warp 9
Core 0 stall_at_cycle 294 Active_warp 9
Core 1 stall_at_cycle 294 Active_warp 9
Core 0 stall_at_cycle 295 Active_warp 9
Core 1 stall_at_cycle 295 Active_warp 9
Core 0 stall_at_cycle 296 Active_warp 9
Core 1 stall_at_cycle 296 Active_warp 9
Core 0 stall_at_cycle 297 Active_warp 9
Core 1 stall_at_cycle 297 Active_warp 9
Core 2 stall_at_cycle 297 Active_warp 9
Core 0 stall_at_cycle 298 Active_warp 9
Core 1 stall_at_cycle 298 Active_warp 9
Core 2 stall_at_cycle 298 Active_warp 9
Core 0 stall_at_cycle 299 Active_warp 9
Core 1 stall_at_cycle 299 Active_warp 9
Core 2 stall_at_cycle 299 Active_warp 9
Core 3 stall_at_cycle 299 Active_warp 9
Core 0 stall_at_cycle 300 Active_warp 9
Core 1 stall_at_cycle 300 Active_warp 9
Core 2 stall_at_cycle 300 Active_warp 9
Core 3 stall_at_cycle 300 Active_warp 9
Core 0 stall_at_cycle 301 Active_warp 9
Core 1 stall_at_cycle 301 Active_warp 9
Core 2 stall_at_cycle 301 Active_warp 9
Core 3 stall_at_cycle 301 Active_warp 9
Core 0 stall_at_cycle 302 Active_warp 9
Core 1 stall_at_cycle 302 Active_warp 9
Core 2 stall_at_cycle 302 Active_warp 9
Core 3 stall_at_cycle 302 Active_warp 9
Core 0 stall_at_cycle 303 Active_warp 9
Core 1 stall_at_cycle 303 Active_warp 9
Core 2 stall_at_cycle 303 Active_warp 9
Core 3 stall_at_cycle 303 Active_warp 9
Core 0 stall_at_cycle 304 Active_warp 9
Core 1 stall_at_cycle 304 Active_warp 9
Core 2 stall_at_cycle 304 Active_warp 9
Core 3 stall_at_cycle 304 Active_warp 9
Core 0 stall_at_cycle 305 Active_warp 9
Core 1 stall_at_cycle 305 Active_warp 9
Core 2 stall_at_cycle 305 Active_warp 9
Core 3 stall_at_cycle 305 Active_warp 9
Core 0 stall_at_cycle 306 Active_warp 9
Core 1 stall_at_cycle 306 Active_warp 9
Core 2 stall_at_cycle 306 Active_warp 9
Core 3 stall_at_cycle 306 Active_warp 9
Core 0 stall_at_cycle 307 Active_warp 9
Core 1 stall_at_cycle 307 Active_warp 9
Core 2 stall_at_cycle 307 Active_warp 9
Core 3 stall_at_cycle 307 Active_warp 9
Core 0 stall_at_cycle 308 Active_warp 9
Core 1 stall_at_cycle 308 Active_warp 9
Core 2 stall_at_cycle 308 Active_warp 9
Core 3 stall_at_cycle 308 Active_warp 9
Core 0 stall_at_cycle 309 Active_warp 9
Core 1 stall_at_cycle 309 Active_warp 9
Core 2 stall_at_cycle 309 Active_warp 9
Core 3 stall_at_cycle 309 Active_warp 9
Core 0 stall_at_cycle 310 Active_warp 9
Core 1 stall_at_cycle 310 Active_warp 9
Core 2 stall_at_cycle 310 Active_warp 9
Core 3 stall_at_cycle 310 Active_warp 9
Core 0 stall_at_cycle 311 Active_warp 9
Core 1 stall_at_cycle 311 Active_warp 9
Core 2 stall_at_cycle 311 Active_warp 9
Core 3 stall_at_cycle 311 Active_warp 9
Core 0 stall_at_cycle 312 Active_warp 9
Core 1 stall_at_cycle 312 Active_warp 9
Core 2 stall_at_cycle 312 Active_warp 9
Core 3 stall_at_cycle 312 Active_warp 9
Core 0 stall_at_cycle 313 Active_warp 9
Core 1 stall_at_cycle 313 Active_warp 9
Core 2 stall_at_cycle 313 Active_warp 9
Core 3 stall_at_cycle 313 Active_warp 9
Core 0 stall_at_cycle 314 Active_warp 9
Core 1 stall_at_cycle 314 Active_warp 9
Core 2 stall_at_cycle 314 Active_warp 9
Core 3 stall_at_cycle 314 Active_warp 9
Core 0 stall_at_cycle 315 Active_warp 9
Core 1 stall_at_cycle 315 Active_warp 9
Core 2 stall_at_cycle 315 Active_warp 9
Core 3 stall_at_cycle 315 Active_warp 9
Core 0 stall_at_cycle 316 Active_warp 9
Core 1 stall_at_cycle 316 Active_warp 9
Core 2 stall_at_cycle 316 Active_warp 9
Core 3 stall_at_cycle 316 Active_warp 9
Core 0 stall_at_cycle 317 Active_warp 9
Core 1 stall_at_cycle 317 Active_warp 9
Core 2 stall_at_cycle 317 Active_warp 9
Core 3 stall_at_cycle 317 Active_warp 9
Core 0 stall_at_cycle 318 Active_warp 9
Core 1 stall_at_cycle 318 Active_warp 9
Core 2 stall_at_cycle 318 Active_warp 9
Core 3 stall_at_cycle 318 Active_warp 9
Core 0 stall_at_cycle 319 Active_warp 9
Core 1 stall_at_cycle 319 Active_warp 9
Core 2 stall_at_cycle 319 Active_warp 9
Core 3 stall_at_cycle 319 Active_warp 9
Core 0 stall_at_cycle 320 Active_warp 9
Core 1 stall_at_cycle 320 Active_warp 9
Core 2 stall_at_cycle 320 Active_warp 9
Core 3 stall_at_cycle 320 Active_warp 9
Core 0 stall_at_cycle 321 Active_warp 9
Core 1 stall_at_cycle 321 Active_warp 9
Core 2 stall_at_cycle 321 Active_warp 9
Core 3 stall_at_cycle 321 Active_warp 9
Core 0 stall_at_cycle 322 Active_warp 9
Core 1 stall_at_cycle 322 Active_warp 9
Core 2 stall_at_cycle 322 Active_warp 9
Core 3 stall_at_cycle 322 Active_warp 9
Core 0 stall_at_cycle 323 Active_warp 9
Core 1 stall_at_cycle 323 Active_warp 9
Core 2 stall_at_cycle 323 Active_warp 9
Core 3 stall_at_cycle 323 Active_warp 9
Core 0 stall_at_cycle 324 Active_warp 9
Core 1 stall_at_cycle 324 Active_warp 9
Core 2 stall_at_cycle 324 Active_warp 9
Core 3 stall_at_cycle 324 Active_warp 9
Core 0 stall_at_cycle 325 Active_warp 9
Core 1 stall_at_cycle 325 Active_warp 9
Core 2 stall_at_cycle 325 Active_warp 9
Core 3 stall_at_cycle 325 Active_warp 9
Core 0 stall_at_cycle 326 Active_warp 9
Core 1 stall_at_cycle 326 Active_warp 9
Core 2 stall_at_cycle 326 Active_warp 9
Core 3 stall_at_cycle 326 Active_warp 9
Core 0 stall_at_cycle 327 Active_warp 9
Core 1 stall_at_cycle 327 Active_warp 9
Core 2 stall_at_cycle 327 Active_warp 9
Core 3 stall_at_cycle 327 Active_warp 9
Core 0 stall_at_cycle 328 Active_warp 9
Core 1 stall_at_cycle 328 Active_warp 9
Core 2 stall_at_cycle 328 Active_warp 9
Core 3 stall_at_cycle 328 Active_warp 9
Core 0 stall_at_cycle 329 Active_warp 9
Core 1 stall_at_cycle 329 Active_warp 9
Core 2 stall_at_cycle 329 Active_warp 9
Core 3 stall_at_cycle 329 Active_warp 9
Core 0 stall_at_cycle 330 Active_warp 9
Core 1 stall_at_cycle 330 Active_warp 9
Core 2 stall_at_cycle 330 Active_warp 9
Core 3 stall_at_cycle 330 Active_warp 9
Core 0 stall_at_cycle 331 Active_warp 9
Core 1 stall_at_cycle 331 Active_warp 9
Core 2 stall_at_cycle 331 Active_warp 9
Core 3 stall_at_cycle 331 Active_warp 9
Core 0 stall_at_cycle 332 Active_warp 9
Core 1 stall_at_cycle 332 Active_warp 9
Core 2 stall_at_cycle 332 Active_warp 9
Core 3 stall_at_cycle 332 Active_warp 9
Core 0 stall_at_cycle 333 Active_warp 9
Core 1 stall_at_cycle 333 Active_warp 9
Core 2 stall_at_cycle 333 Active_warp 9
Core 3 stall_at_cycle 333 Active_warp 9
Core 0 stall_at_cycle 334 Active_warp 9
Core 1 stall_at_cycle 334 Active_warp 9
Core 2 stall_at_cycle 334 Active_warp 9
Core 3 stall_at_cycle 334 Active_warp 9
Core 0 stall_at_cycle 335 Active_warp 9
Core 1 stall_at_cycle 335 Active_warp 9
Core 2 stall_at_cycle 335 Active_warp 9
Core 3 stall_at_cycle 335 Active_warp 9
Core 0 stall_at_cycle 336 Active_warp 9
Core 1 stall_at_cycle 336 Active_warp 9
Core 2 stall_at_cycle 336 Active_warp 9
Core 3 stall_at_cycle 336 Active_warp 9
Core 0 stall_at_cycle 337 Active_warp 9
Core 1 stall_at_cycle 337 Active_warp 9
Core 2 stall_at_cycle 337 Active_warp 9
Core 3 stall_at_cycle 337 Active_warp 9
Core 0 stall_at_cycle 338 Active_warp 9
Core 1 stall_at_cycle 338 Active_warp 9
Core 2 stall_at_cycle 338 Active_warp 9
Core 3 stall_at_cycle 338 Active_warp 9
Core 0 stall_at_cycle 339 Active_warp 9
Core 1 stall_at_cycle 339 Active_warp 9
Core 2 stall_at_cycle 339 Active_warp 9
Core 3 stall_at_cycle 339 Active_warp 9
Core 0 stall_at_cycle 340 Active_warp 9
Core 1 stall_at_cycle 340 Active_warp 9
Core 2 stall_at_cycle 340 Active_warp 9
Core 3 stall_at_cycle 340 Active_warp 9
Core 0 stall_at_cycle 341 Active_warp 9
Core 1 stall_at_cycle 341 Active_warp 9
Core 2 stall_at_cycle 341 Active_warp 9
Core 3 stall_at_cycle 341 Active_warp 9
Core 0 stall_at_cycle 342 Active_warp 9
Core 1 stall_at_cycle 342 Active_warp 9
Core 2 stall_at_cycle 342 Active_warp 9
Core 3 stall_at_cycle 342 Active_warp 9
Core 0 stall_at_cycle 343 Active_warp 9
Core 1 stall_at_cycle 343 Active_warp 9
Core 2 stall_at_cycle 343 Active_warp 9
Core 3 stall_at_cycle 343 Active_warp 9
Core 0 stall_at_cycle 344 Active_warp 9
Core 1 stall_at_cycle 344 Active_warp 9
Core 2 stall_at_cycle 344 Active_warp 9
Core 3 stall_at_cycle 344 Active_warp 9
Core 0 stall_at_cycle 345 Active_warp 9
Core 1 stall_at_cycle 345 Active_warp 9
Core 2 stall_at_cycle 345 Active_warp 9
Core 3 stall_at_cycle 345 Active_warp 9
Core 0 stall_at_cycle 346 Active_warp 9
Core 1 stall_at_cycle 346 Active_warp 9
Core 2 stall_at_cycle 346 Active_warp 9
Core 3 stall_at_cycle 346 Active_warp 9
Core 0 stall_at_cycle 347 Active_warp 9
Core 1 stall_at_cycle 347 Active_warp 9
Core 2 stall_at_cycle 347 Active_warp 9
Core 3 stall_at_cycle 347 Active_warp 9
Core 0 stall_at_cycle 348 Active_warp 9
Core 1 stall_at_cycle 348 Active_warp 9
Core 2 stall_at_cycle 348 Active_warp 9
Core 3 stall_at_cycle 348 Active_warp 9
Core 0 stall_at_cycle 349 Active_warp 9
Core 1 stall_at_cycle 349 Active_warp 9
Core 2 stall_at_cycle 349 Active_warp 9
Core 3 stall_at_cycle 349 Active_warp 9
Core 0 stall_at_cycle 350 Active_warp 9
Core 1 stall_at_cycle 350 Active_warp 9
Core 2 stall_at_cycle 350 Active_warp 9
Core 3 stall_at_cycle 350 Active_warp 9
Core 0 stall_at_cycle 351 Active_warp 9
Core 1 stall_at_cycle 351 Active_warp 9
Core 2 stall_at_cycle 351 Active_warp 9
Core 3 stall_at_cycle 351 Active_warp 9
Core 0 stall_at_cycle 352 Active_warp 9
Core 1 stall_at_cycle 352 Active_warp 9
Core 2 stall_at_cycle 352 Active_warp 9
Core 3 stall_at_cycle 352 Active_warp 9
Core 0 stall_at_cycle 353 Active_warp 9
Core 1 stall_at_cycle 353 Active_warp 9
Core 2 stall_at_cycle 353 Active_warp 9
Core 3 stall_at_cycle 353 Active_warp 9
Core 0 stall_at_cycle 354 Active_warp 9
Core 1 stall_at_cycle 354 Active_warp 9
Core 2 stall_at_cycle 354 Active_warp 9
Core 3 stall_at_cycle 354 Active_warp 9
Core 0 stall_at_cycle 355 Active_warp 9
Core 1 stall_at_cycle 355 Active_warp 9
Core 2 stall_at_cycle 355 Active_warp 9
Core 3 stall_at_cycle 355 Active_warp 9
Core 0 stall_at_cycle 356 Active_warp 9
Core 1 stall_at_cycle 356 Active_warp 9
Core 2 stall_at_cycle 356 Active_warp 9
Core 3 stall_at_cycle 356 Active_warp 9
Core 0 stall_at_cycle 357 Active_warp 9
Core 1 stall_at_cycle 357 Active_warp 9
Core 2 stall_at_cycle 357 Active_warp 9
Core 3 stall_at_cycle 357 Active_warp 9
Core 0 stall_at_cycle 358 Active_warp 9
Core 1 stall_at_cycle 358 Active_warp 9
Core 2 stall_at_cycle 358 Active_warp 9
Core 3 stall_at_cycle 358 Active_warp 9
Core 0 stall_at_cycle 359 Active_warp 9
Core 1 stall_at_cycle 359 Active_warp 9
Core 2 stall_at_cycle 359 Active_warp 9
Core 3 stall_at_cycle 359 Active_warp 9
Core 0 stall_at_cycle 360 Active_warp 9
Core 1 stall_at_cycle 360 Active_warp 9
Core 2 stall_at_cycle 360 Active_warp 9
Core 3 stall_at_cycle 360 Active_warp 9
Core 0 stall_at_cycle 361 Active_warp 9
Core 1 stall_at_cycle 361 Active_warp 9
Core 2 stall_at_cycle 361 Active_warp 9
Core 3 stall_at_cycle 361 Active_warp 9
Core 0 stall_at_cycle 362 Active_warp 9
Core 1 stall_at_cycle 362 Active_warp 9
Core 2 stall_at_cycle 362 Active_warp 9
Core 3 stall_at_cycle 362 Active_warp 9
Core 0 stall_at_cycle 363 Active_warp 9
Core 1 stall_at_cycle 363 Active_warp 9
Core 2 stall_at_cycle 363 Active_warp 9
Core 3 stall_at_cycle 363 Active_warp 9
Core 0 stall_at_cycle 364 Active_warp 9
Core 1 stall_at_cycle 364 Active_warp 9
Core 2 stall_at_cycle 364 Active_warp 9
Core 3 stall_at_cycle 364 Active_warp 9
Core 0 stall_at_cycle 365 Active_warp 9
Core 1 stall_at_cycle 365 Active_warp 9
Core 2 stall_at_cycle 365 Active_warp 9
Core 3 stall_at_cycle 365 Active_warp 9
Core 0 stall_at_cycle 366 Active_warp 9
Core 1 stall_at_cycle 366 Active_warp 9
Core 2 stall_at_cycle 366 Active_warp 9
Core 3 stall_at_cycle 366 Active_warp 9
Core 0 stall_at_cycle 367 Active_warp 9
Core 1 stall_at_cycle 367 Active_warp 9
Core 2 stall_at_cycle 367 Active_warp 9
Core 3 stall_at_cycle 367 Active_warp 9
Core 0 stall_at_cycle 368 Active_warp 9
Core 1 stall_at_cycle 368 Active_warp 9
Core 2 stall_at_cycle 368 Active_warp 9
Core 3 stall_at_cycle 368 Active_warp 9
Core 0 stall_at_cycle 369 Active_warp 9
Core 1 stall_at_cycle 369 Active_warp 9
Core 2 stall_at_cycle 369 Active_warp 9
Core 3 stall_at_cycle 369 Active_warp 9
Core 0 stall_at_cycle 370 Active_warp 9
Core 1 stall_at_cycle 370 Active_warp 9
Core 2 stall_at_cycle 370 Active_warp 9
Core 3 stall_at_cycle 370 Active_warp 9
Core 0 stall_at_cycle 371 Active_warp 9
Core 1 stall_at_cycle 371 Active_warp 9
Core 2 stall_at_cycle 371 Active_warp 9
Core 3 stall_at_cycle 371 Active_warp 9
Core 0 stall_at_cycle 372 Active_warp 9
Core 1 stall_at_cycle 372 Active_warp 9
Core 2 stall_at_cycle 372 Active_warp 9
Core 3 stall_at_cycle 372 Active_warp 9
Core 0 stall_at_cycle 373 Active_warp 9
Core 1 stall_at_cycle 373 Active_warp 9
Core 2 stall_at_cycle 373 Active_warp 9
Core 3 stall_at_cycle 373 Active_warp 9
Core 0 stall_at_cycle 374 Active_warp 9
Core 1 stall_at_cycle 374 Active_warp 9
Core 2 stall_at_cycle 374 Active_warp 9
Core 3 stall_at_cycle 374 Active_warp 9
Core 0 stall_at_cycle 375 Active_warp 9
Core 1 stall_at_cycle 375 Active_warp 9
Core 2 stall_at_cycle 375 Active_warp 9
Core 3 stall_at_cycle 375 Active_warp 9
Core 0 stall_at_cycle 376 Active_warp 9
Core 1 stall_at_cycle 376 Active_warp 9
Core 2 stall_at_cycle 376 Active_warp 9
Core 3 stall_at_cycle 376 Active_warp 9
Core 0 stall_at_cycle 377 Active_warp 9
Core 1 stall_at_cycle 377 Active_warp 9
Core 2 stall_at_cycle 377 Active_warp 9
Core 3 stall_at_cycle 377 Active_warp 9
Core 0 stall_at_cycle 378 Active_warp 9
Core 1 stall_at_cycle 378 Active_warp 9
Core 2 stall_at_cycle 378 Active_warp 9
Core 3 stall_at_cycle 378 Active_warp 9
Core 0 stall_at_cycle 379 Active_warp 9
Core 1 stall_at_cycle 379 Active_warp 9
Core 2 stall_at_cycle 379 Active_warp 9
Core 3 stall_at_cycle 379 Active_warp 9
Core 0 stall_at_cycle 380 Active_warp 9
Core 1 stall_at_cycle 380 Active_warp 9
Core 2 stall_at_cycle 380 Active_warp 9
Core 3 stall_at_cycle 380 Active_warp 9
Core 0 stall_at_cycle 381 Active_warp 9
Core 1 stall_at_cycle 381 Active_warp 9
Core 2 stall_at_cycle 381 Active_warp 9
Core 3 stall_at_cycle 381 Active_warp 9
Core 0 stall_at_cycle 382 Active_warp 9
Core 1 stall_at_cycle 382 Active_warp 9
Core 2 stall_at_cycle 382 Active_warp 9
Core 3 stall_at_cycle 382 Active_warp 9
Core 0 stall_at_cycle 383 Active_warp 9
Core 1 stall_at_cycle 383 Active_warp 9
Core 2 stall_at_cycle 383 Active_warp 9
Core 3 stall_at_cycle 383 Active_warp 9
Core 0 stall_at_cycle 384 Active_warp 9
Core 1 stall_at_cycle 384 Active_warp 9
Core 2 stall_at_cycle 384 Active_warp 9
Core 3 stall_at_cycle 384 Active_warp 9
Core 0 stall_at_cycle 385 Active_warp 9
Core 1 stall_at_cycle 385 Active_warp 9
Core 2 stall_at_cycle 385 Active_warp 9
Core 3 stall_at_cycle 385 Active_warp 9
Core 0 stall_at_cycle 386 Active_warp 9
Core 1 stall_at_cycle 386 Active_warp 9
Core 2 stall_at_cycle 386 Active_warp 9
Core 3 stall_at_cycle 386 Active_warp 9
Core 0 stall_at_cycle 387 Active_warp 9
Core 1 stall_at_cycle 387 Active_warp 9
Core 2 stall_at_cycle 387 Active_warp 9
Core 3 stall_at_cycle 387 Active_warp 9
Core 0 stall_at_cycle 388 Active_warp 9
Core 1 stall_at_cycle 388 Active_warp 9
Core 2 stall_at_cycle 388 Active_warp 9
Core 3 stall_at_cycle 388 Active_warp 9
Core 0 stall_at_cycle 389 Active_warp 9
Core 1 stall_at_cycle 389 Active_warp 9
Core 2 stall_at_cycle 389 Active_warp 9
Core 3 stall_at_cycle 389 Active_warp 9
Core 0 stall_at_cycle 390 Active_warp 9
Core 1 stall_at_cycle 390 Active_warp 9
Core 2 stall_at_cycle 390 Active_warp 9
Core 3 stall_at_cycle 390 Active_warp 9
Core 0 stall_at_cycle 391 Active_warp 9
Core 1 stall_at_cycle 391 Active_warp 9
Core 2 stall_at_cycle 391 Active_warp 9
Core 3 stall_at_cycle 391 Active_warp 9
Core 0 stall_at_cycle 392 Active_warp 9
Core 1 stall_at_cycle 392 Active_warp 9
Core 2 stall_at_cycle 392 Active_warp 9
Core 3 stall_at_cycle 392 Active_warp 9
Core 0 stall_at_cycle 393 Active_warp 9
Core 1 stall_at_cycle 393 Active_warp 9
Core 2 stall_at_cycle 393 Active_warp 9
Core 3 stall_at_cycle 393 Active_warp 9
Core 0 stall_at_cycle 394 Active_warp 9
Core 1 stall_at_cycle 394 Active_warp 9
Core 2 stall_at_cycle 394 Active_warp 9
Core 3 stall_at_cycle 394 Active_warp 9
Core 0 stall_at_cycle 395 Active_warp 9
Core 1 stall_at_cycle 395 Active_warp 9
Core 2 stall_at_cycle 395 Active_warp 9
Core 3 stall_at_cycle 395 Active_warp 9
Core 0 stall_at_cycle 396 Active_warp 9
Core 1 stall_at_cycle 396 Active_warp 9
Core 2 stall_at_cycle 396 Active_warp 9
Core 3 stall_at_cycle 396 Active_warp 9
Core 0 stall_at_cycle 397 Active_warp 9
Core 1 stall_at_cycle 397 Active_warp 9
Core 2 stall_at_cycle 397 Active_warp 9
Core 3 stall_at_cycle 397 Active_warp 9
Core 0 stall_at_cycle 398 Active_warp 9
Core 1 stall_at_cycle 398 Active_warp 9
Core 2 stall_at_cycle 398 Active_warp 9
Core 3 stall_at_cycle 398 Active_warp 9
Core 0 stall_at_cycle 399 Active_warp 9
Core 1 stall_at_cycle 399 Active_warp 9
Core 2 stall_at_cycle 399 Active_warp 9
Core 3 stall_at_cycle 399 Active_warp 9
Core 0 stall_at_cycle 400 Active_warp 9
Core 1 stall_at_cycle 400 Active_warp 9
Core 2 stall_at_cycle 400 Active_warp 9
Core 3 stall_at_cycle 400 Active_warp 9
Core 0 stall_at_cycle 401 Active_warp 9
Core 1 stall_at_cycle 401 Active_warp 9
Core 2 stall_at_cycle 401 Active_warp 9
Core 3 stall_at_cycle 401 Active_warp 9
Core 0 stall_at_cycle 402 Active_warp 9
Core 1 stall_at_cycle 402 Active_warp 9
Core 2 stall_at_cycle 402 Active_warp 9
Core 3 stall_at_cycle 402 Active_warp 9
Core 0 stall_at_cycle 403 Active_warp 9
Core 1 stall_at_cycle 403 Active_warp 9
Core 2 stall_at_cycle 403 Active_warp 9
Core 3 stall_at_cycle 403 Active_warp 9
Core 0 stall_at_cycle 404 Active_warp 9
Core 1 stall_at_cycle 404 Active_warp 9
Core 2 stall_at_cycle 404 Active_warp 9
[...]
Core 1 stall_at_cycle 37494 Active_warp 3
Core 1 stall_at_cycle 37495 Active_warp 3
Core 1 stall_at_cycle 37496 Active_warp 3
Core 1 stall_at_cycle 37497 Active_warp 3
Core 1 stall_at_cycle 37498 Active_warp 3
Core 1 stall_at_cycle 37500 Active_warp 3
Core 1 stall_at_cycle 37501 Active_warp 3
Core 1 stall_at_cycle 37502 Active_warp 3
Core 1 stall_at_cycle 37503 Active_warp 3
Core 1 stall_at_cycle 37504 Active_warp 3
Core 1 stall_at_cycle 37505 Active_warp 3
Core 1 stall_at_cycle 37507 Active_warp 3
Core 1 stall_at_cycle 37508 Active_warp 3
Core 1 stall_at_cycle 37509 Active_warp 3
Core 1 stall_at_cycle 37510 Active_warp 3
Core 1 stall_at_cycle 37511 Active_warp 3
Core 1 stall_at_cycle 37512 Active_warp 3
Core 1 stall_at_cycle 37514 Active_warp 3
Core 1 stall_at_cycle 37516 Active_warp 3
Core 1 stall_at_cycle 37517 Active_warp 3
Core 1 stall_at_cycle 37519 Active_warp 3
Core 1 stall_at_cycle 37520 Active_warp 3
Core 1 stall_at_cycle 37521 Active_warp 3
Core 1 stall_at_cycle 37522 Active_warp 3
Core 1 stall_at_cycle 37523 Active_warp 3
Core 1 stall_at_cycle 37525 Active_warp 3
Core 1 stall_at_cycle 37527 Active_warp 3
Core 1 stall_at_cycle 37528 Active_warp 3
Core 1 stall_at_cycle 37533 Active_warp 3
Core 1 stall_at_cycle 37534 Active_warp 3
Core 1 stall_at_cycle 37535 Active_warp 3
Core 1 stall_at_cycle 37539 Active_warp 3
Core 1 stall_at_cycle 37540 Active_warp 3
Core 1 stall_at_cycle 37541 Active_warp 3
Core 1 stall_at_cycle 37542 Active_warp 3
Core 1 stall_at_cycle 37543 Active_warp 3
Core 1 stall_at_cycle 37544 Active_warp 3
Core 1 stall_at_cycle 37545 Active_warp 3
Core 1 stall_at_cycle 37552 Active_warp 3
Core 1 stall_at_cycle 37553 Active_warp 3
Core 1 stall_at_cycle 37554 Active_warp 3
Core 1 stall_at_cycle 37555 Active_warp 3
Core 1 stall_at_cycle 37559 Active_warp 3
Core 1 stall_at_cycle 37560 Active_warp 3
Core 1 stall_at_cycle 37561 Active_warp 3
Core 1 stall_at_cycle 37562 Active_warp 3
Core 1 stall_at_cycle 37563 Active_warp 3
Core 1 stall_at_cycle 37568 Active_warp 3
Core 1 stall_at_cycle 37572 Active_warp 3
Core 1 stall_at_cycle 37573 Active_warp 3
Core 1 stall_at_cycle 37574 Active_warp 3
Core 1 stall_at_cycle 37575 Active_warp 3
Core 1 stall_at_cycle 37576 Active_warp 3
Core 1 stall_at_cycle 37577 Active_warp 3
Core 1 stall_at_cycle 37578 Active_warp 3
Core 1 stall_at_cycle 37580 Active_warp 3
Core 1 stall_at_cycle 37581 Active_warp 3
Core 1 stall_at_cycle 37582 Active_warp 3
Core 1 stall_at_cycle 37583 Active_warp 3
Core 1 stall_at_cycle 37584 Active_warp 3
Core 1 stall_at_cycle 37585 Active_warp 3
Core 1 stall_at_cycle 37586 Active_warp 3
Core 1 stall_at_cycle 37587 Active_warp 3
Core 1 stall_at_cycle 37588 Active_warp 3
Core 1 stall_at_cycle 37589 Active_warp 3
Core 1 stall_at_cycle 37595 Active_warp 3
Core 1 stall_at_cycle 37596 Active_warp 3
Core 1 stall_at_cycle 37597 Active_warp 3
Core 1 stall_at_cycle 37601 Active_warp 3
Core 1 stall_at_cycle 37602 Active_warp 3
Core 1 stall_at_cycle 37603 Active_warp 3
Core 1 stall_at_cycle 37604 Active_warp 3
Core 1 stall_at_cycle 37609 Active_warp 3
Core 1 stall_at_cycle 37613 Active_warp 3
Core 1 stall_at_cycle 37614 Active_warp 3
Core 1 stall_at_cycle 37615 Active_warp 3
Core 1 stall_at_cycle 37616 Active_warp 3
Core 1 stall_at_cycle 37617 Active_warp 3
Core 1 stall_at_cycle 37619 Active_warp 3
Core 1 stall_at_cycle 37620 Active_warp 3
Core 1 stall_at_cycle 37621 Active_warp 3
Core 1 stall_at_cycle 37622 Active_warp 3
Core 1 stall_at_cycle 37623 Active_warp 3
Core 1 stall_at_cycle 37624 Active_warp 3
Core 1 stall_at_cycle 37625 Active_warp 3
Core 1 stall_at_cycle 37626 Active_warp 3
Core 1 stall_at_cycle 37627 Active_warp 3
Core 1 stall_at_cycle 37628 Active_warp 3
Core 1 stall_at_cycle 37634 Active_warp 3
Core 1 stall_at_cycle 37635 Active_warp 3
Core 1 stall_at_cycle 37636 Active_warp 3
Core 1 stall_at_cycle 37640 Active_warp 3
Core 1 stall_at_cycle 37641 Active_warp 3
Core 1 stall_at_cycle 37642 Active_warp 3
Core 1 stall_at_cycle 37643 Active_warp 3
Core 1 stall_at_cycle 37648 Active_warp 3
Core 1 stall_at_cycle 37652 Active_warp 3
Core 1 stall_at_cycle 37653 Active_warp 3
Core 1 stall_at_cycle 37654 Active_warp 3
Core 1 stall_at_cycle 37655 Active_warp 3
Core 1 stall_at_cycle 37656 Active_warp 3
Core 1 stall_at_cycle 37658 Active_warp 3
Core 1 stall_at_cycle 37659 Active_warp 3
Core 1 stall_at_cycle 37660 Active_warp 3
Core 1 stall_at_cycle 37661 Active_warp 3
Core 1 stall_at_cycle 37662 Active_warp 3
Core 1 stall_at_cycle 37663 Active_warp 3
Core 1 stall_at_cycle 37664 Active_warp 3
Core 1 stall_at_cycle 37665 Active_warp 3
Core 1 stall_at_cycle 37666 Active_warp 3
Core 1 stall_at_cycle 37667 Active_warp 3
Core 1 stall_at_cycle 37673 Active_warp 3
Core 1 stall_at_cycle 37674 Active_warp 3
Core 1 stall_at_cycle 37675 Active_warp 3
Core 1 stall_at_cycle 37679 Active_warp 3
Core 1 stall_at_cycle 37680 Active_warp 3
Core 1 stall_at_cycle 37681 Active_warp 3
Core 1 stall_at_cycle 37682 Active_warp 3
Core 1 stall_at_cycle 37687 Active_warp 3
Core 1 stall_at_cycle 37691 Active_warp 3
Core 1 stall_at_cycle 37692 Active_warp 3
Core 1 stall_at_cycle 37693 Active_warp 3
Core 1 stall_at_cycle 37694 Active_warp 3
Core 1 stall_at_cycle 37695 Active_warp 3
Core 1 stall_at_cycle 37697 Active_warp 3
Core 1 stall_at_cycle 37698 Active_warp 3
Core 1 stall_at_cycle 37699 Active_warp 3
Core 1 stall_at_cycle 37700 Active_warp 3
Core 1 stall_at_cycle 37701 Active_warp 3
Core 1 stall_at_cycle 37702 Active_warp 3
Core 1 stall_at_cycle 37703 Active_warp 3
Core 1 stall_at_cycle 37704 Active_warp 3
Core 1 stall_at_cycle 37705 Active_warp 3
Core 1 stall_at_cycle 37706 Active_warp 3
Core 1 stall_at_cycle 37712 Active_warp 3
Core 1 stall_at_cycle 37713 Active_warp 3
Core 1 stall_at_cycle 37714 Active_warp 3
Core 1 stall_at_cycle 37718 Active_warp 3
Core 1 stall_at_cycle 37719 Active_warp 3
Core 1 stall_at_cycle 37720 Active_warp 3
Core 1 stall_at_cycle 37721 Active_warp 3
Core 1 stall_at_cycle 37726 Active_warp 3
Core 1 stall_at_cycle 37730 Active_warp 3
Core 1 stall_at_cycle 37731 Active_warp 3
Core 1 stall_at_cycle 37732 Active_warp 3
Core 1 stall_at_cycle 37733 Active_warp 3
Core 1 stall_at_cycle 37734 Active_warp 3
Core 1 stall_at_cycle 37736 Active_warp 3
Core 1 stall_at_cycle 37737 Active_warp 3
Core 1 stall_at_cycle 37738 Active_warp 3
Core 1 stall_at_cycle 37739 Active_warp 3
Core 1 stall_at_cycle 37740 Active_warp 3
Core 1 stall_at_cycle 37741 Active_warp 3
Core 1 stall_at_cycle 37742 Active_warp 3
Core 1 stall_at_cycle 37743 Active_warp 3
Core 1 stall_at_cycle 37744 Active_warp 3
Core 1 stall_at_cycle 37745 Active_warp 3
Core 1 stall_at_cycle 37751 Active_warp 3
Core 1 stall_at_cycle 37752 Active_warp 3
Core 1 stall_at_cycle 37753 Active_warp 3
Core 1 stall_at_cycle 37757 Active_warp 3
Core 1 stall_at_cycle 37758 Active_warp 3
Core 1 stall_at_cycle 37759 Active_warp 3
Core 1 stall_at_cycle 37760 Active_warp 3
Core 1 stall_at_cycle 37765 Active_warp 3
Core 1 stall_at_cycle 37769 Active_warp 3
Core 1 stall_at_cycle 37770 Active_warp 3
Core 1 stall_at_cycle 37771 Active_warp 3
Core 1 stall_at_cycle 37772 Active_warp 3
Core 1 stall_at_cycle 37773 Active_warp 3
Core 1 stall_at_cycle 37775 Active_warp 3
Core 1 stall_at_cycle 37776 Active_warp 3
Core 1 stall_at_cycle 37777 Active_warp 3
Core 1 stall_at_cycle 37778 Active_warp 3
Core 1 stall_at_cycle 37779 Active_warp 3
Core 1 stall_at_cycle 37780 Active_warp 3
Core 1 stall_at_cycle 37781 Active_warp 3
Core 1 stall_at_cycle 37782 Active_warp 3
Core 1 stall_at_cycle 37783 Active_warp 3
Core 1 stall_at_cycle 37784 Active_warp 3
Core 1 stall_at_cycle 37790 Active_warp 3
Core 1 stall_at_cycle 37791 Active_warp 3
Core 1 stall_at_cycle 37792 Active_warp 3
Core 1 stall_at_cycle 37796 Active_warp 3
Core 1 stall_at_cycle 37797 Active_warp 3
Core 1 stall_at_cycle 37798 Active_warp 3
Core 1 stall_at_cycle 37799 Active_warp 3
Core 1 stall_at_cycle 37804 Active_warp 3
Core 1 stall_at_cycle 37808 Active_warp 3
Core 1 stall_at_cycle 37809 Active_warp 3
Core 1 stall_at_cycle 37810 Active_warp 3
Core 1 stall_at_cycle 37811 Active_warp 3
Core 1 stall_at_cycle 37812 Active_warp 3
Core 1 stall_at_cycle 37814 Active_warp 3
Core 1 stall_at_cycle 37815 Active_warp 3
Core 1 stall_at_cycle 37816 Active_warp 3
Core 1 stall_at_cycle 37817 Active_warp 3
Core 1 stall_at_cycle 37818 Active_warp 3
Core 1 stall_at_cycle 37819 Active_warp 3
Core 1 stall_at_cycle 37820 Active_warp 3
Core 1 stall_at_cycle 37821 Active_warp 3
Core 1 stall_at_cycle 37822 Active_warp 3
Core 1 stall_at_cycle 37823 Active_warp 3
Core 1 stall_at_cycle 37829 Active_warp 3
Core 1 stall_at_cycle 37830 Active_warp 3
Core 1 stall_at_cycle 37831 Active_warp 3
Core 1 stall_at_cycle 37835 Active_warp 3
Core 1 stall_at_cycle 37836 Active_warp 3
Core 1 stall_at_cycle 37837 Active_warp 3
Core 1 stall_at_cycle 37838 Active_warp 3
Core 1 stall_at_cycle 37844 Active_warp 3
Core 1 stall_at_cycle 37845 Active_warp 3
Core 1 stall_at_cycle 37848 Active_warp 3
Core 1 stall_at_cycle 37849 Active_warp 2
Core 1 stall_at_cycle 37850 Active_warp 1
Core 1 stall_at_cycle 37851 Active_warp 1
Core 1 stall_at_cycle 37852 Active_warp 1
Core 1 stall_at_cycle 37854 Active_warp 1
Core 1 stall_at_cycle 37855 Active_warp 1
Core 1 stall_at_cycle 37856 Active_warp 1
Core 1 stall_at_cycle 37857 Active_warp 1
Core 1 stall_at_cycle 37858 Active_warp 1
Core 1 stall_at_cycle 37859 Active_warp 1
Core 1 stall_at_cycle 37860 Active_warp 1
Core 1 stall_at_cycle 37861 Active_warp 1
Core 1 stall_at_cycle 37862 Active_warp 1
Core 1 stall_at_cycle 37864 Active_warp 1
Core 1 stall_at_cycle 37865 Active_warp 1
Core 1 stall_at_cycle 37866 Active_warp 1
Core 1 stall_at_cycle 37867 Active_warp 1
Core 1 stall_at_cycle 37868 Active_warp 1
Core 1 stall_at_cycle 37869 Active_warp 1
Core 1 stall_at_cycle 37870 Active_warp 1
Core 1 stall_at_cycle 37871 Active_warp 1
Core 1 stall_at_cycle 37872 Active_warp 1
Core 1 stall_at_cycle 37873 Active_warp 1
Core 1 stall_at_cycle 37876 Active_warp 1
Core 1 stall_at_cycle 37877 Active_warp 1
Core 1 stall_at_cycle 37878 Active_warp 1
Core 1 stall_at_cycle 37880 Active_warp 1
Core 1 stall_at_cycle 37881 Active_warp 1
Core 1 stall_at_cycle 37882 Active_warp 1
Core 1 stall_at_cycle 37883 Active_warp 1
Core 1 stall_at_cycle 37884 Active_warp 1
Core 1 stall_at_cycle 37885 Active_warp 1
Core 1 stall_at_cycle 37886 Active_warp 1
Core 1 stall_at_cycle 37887 Active_warp 1
Core 1 stall_at_cycle 37888 Active_warp 1
Core 1 stall_at_cycle 37889 Active_warp 1
Core 1 stall_at_cycle 37890 Active_warp 1
Core 1 stall_at_cycle 37891 Active_warp 1
Core 1 stall_at_cycle 37892 Active_warp 1
Core 1 stall_at_cycle 37893 Active_warp 1
Core 1 stall_at_cycle 37894 Active_warp 1
Core 1 stall_at_cycle 37895 Active_warp 1
Core 1 stall_at_cycle 37896 Active_warp 1
Core 1 stall_at_cycle 37897 Active_warp 1
Core 1 stall_at_cycle 37898 Active_warp 1
Core 1 stall_at_cycle 37899 Active_warp 1
Core 1 stall_at_cycle 37900 Active_warp 1
Core 1 stall_at_cycle 37901 Active_warp 1
Core 1 stall_at_cycle 37902 Active_warp 1
Core 1 stall_at_cycle 37903 Active_warp 1
Core 1 stall_at_cycle 37904 Active_warp 1
Core 1 stall_at_cycle 37905 Active_warp 1
Core 1 stall_at_cycle 37906 Active_warp 1
Core 1 stall_at_cycle 37907 Active_warp 1
Core 1 stall_at_cycle 37908 Active_warp 1
Core 1 stall_at_cycle 37909 Active_warp 1
Core 1 stall_at_cycle 37910 Active_warp 1
Core 1 stall_at_cycle 37911 Active_warp 1
Core 1 stall_at_cycle 37912 Active_warp 1
Core 1 stall_at_cycle 37913 Active_warp 1
Core 1 stall_at_cycle 37914 Active_warp 1
Core 1 stall_at_cycle 37915 Active_warp 1
Core 1 stall_at_cycle 37916 Active_warp 1
Core 1 stall_at_cycle 37917 Active_warp 1
Core 1 stall_at_cycle 37918 Active_warp 1
Core 1 stall_at_cycle 37919 Active_warp 1
Core 1 stall_at_cycle 37920 Active_warp 1
Core 1 stall_at_cycle 37921 Active_warp 1
Core 1 stall_at_cycle 37922 Active_warp 1
Core 1 stall_at_cycle 37923 Active_warp 1
Core 1 stall_at_cycle 37924 Active_warp 1
Core 1 stall_at_cycle 37925 Active_warp 1
Core 1 stall_at_cycle 37926 Active_warp 1
Core 1 stall_at_cycle 37927 Active_warp 1
Core 1 stall_at_cycle 37928 Active_warp 1
Core 1 stall_at_cycle 37929 Active_warp 1
Core 1 stall_at_cycle 37930 Active_warp 1
Core 1 stall_at_cycle 37931 Active_warp 1
Core 1 stall_at_cycle 37932 Active_warp 1
Core 1 stall_at_cycle 37933 Active_warp 1
Core 1 stall_at_cycle 37934 Active_warp 1
Core 1 stall_at_cycle 37935 Active_warp 1
Core 1 stall_at_cycle 37936 Active_warp 1
Core 1 stall_at_cycle 37937 Active_warp 1
Core 1 stall_at_cycle 37938 Active_warp 1
Core 1 stall_at_cycle 37939 Active_warp 1
Core 1 stall_at_cycle 37940 Active_warp 1
Core 1 stall_at_cycle 37941 Active_warp 1
Core 1 stall_at_cycle 37942 Active_warp 1
Core 1 stall_at_cycle 37943 Active_warp 1
Core 1 stall_at_cycle 37944 Active_warp 1
Core 1 stall_at_cycle 37945 Active_warp 1
Core 1 stall_at_cycle 37946 Active_warp 1
Core 1 stall_at_cycle 37947 Active_warp 1
Core 1 stall_at_cycle 37948 Active_warp 1
Core 1 stall_at_cycle 37949 Active_warp 1
Core 1 stall_at_cycle 37950 Active_warp 1
Core 1 stall_at_cycle 37951 Active_warp 1
Core 1 stall_at_cycle 37952 Active_warp 1
Core 1 stall_at_cycle 37953 Active_warp 1
Core 1 stall_at_cycle 37954 Active_warp 1
Core 1 stall_at_cycle 37955 Active_warp 1
Core 1 stall_at_cycle 37956 Active_warp 1
Core 1 stall_at_cycle 37957 Active_warp 1
Core 1 stall_at_cycle 37958 Active_warp 1
Core 1 stall_at_cycle 37959 Active_warp 1
Core 1 stall_at_cycle 37960 Active_warp 1
Core 1 stall_at_cycle 37961 Active_warp 1
Core 1 stall_at_cycle 37962 Active_warp 1
Core 1 stall_at_cycle 37963 Active_warp 1
Core 1 stall_at_cycle 37964 Active_warp 1
Core 1 stall_at_cycle 37965 Active_warp 1
Core 1 stall_at_cycle 37966 Active_warp 1
Core 1 stall_at_cycle 37967 Active_warp 1
Core 1 stall_at_cycle 37968 Active_warp 1
Core 1 stall_at_cycle 37969 Active_warp 1
Core 1 stall_at_cycle 37970 Active_warp 1
Core 1 stall_at_cycle 37971 Active_warp 1
Core 1 stall_at_cycle 37972 Active_warp 1
Core 1 stall_at_cycle 37973 Active_warp 1
Core 1 stall_at_cycle 37974 Active_warp 1
Core 1 stall_at_cycle 37975 Active_warp 1
Core 1 stall_at_cycle 37976 Active_warp 1
Core 1 stall_at_cycle 37977 Active_warp 1
Core 1 stall_at_cycle 37978 Active_warp 1
Core 1 stall_at_cycle 37979 Active_warp 1
Core 1 stall_at_cycle 37980 Active_warp 1
Core 1 stall_at_cycle 37981 Active_warp 1
Core 1 stall_at_cycle 37982 Active_warp 1
Core 1 stall_at_cycle 37983 Active_warp 1
Core 1 stall_at_cycle 37984 Active_warp 1
Core 1 stall_at_cycle 37985 Active_warp 1
Core 1 stall_at_cycle 37986 Active_warp 1
Core 1 stall_at_cycle 37987 Active_warp 1
Core 1 stall_at_cycle 37988 Active_warp 1
Core 1 stall_at_cycle 37989 Active_warp 1
Core 1 stall_at_cycle 37990 Active_warp 1
Core 1 stall_at_cycle 37991 Active_warp 1
Core 1 stall_at_cycle 37992 Active_warp 1
Core 1 stall_at_cycle 37993 Active_warp 1
Core 1 stall_at_cycle 37994 Active_warp 1
Core 1 stall_at_cycle 37995 Active_warp 1
Core 1 stall_at_cycle 37996 Active_warp 1
Core 1 stall_at_cycle 37997 Active_warp 1
Core 1 stall_at_cycle 37998 Active_warp 1
Core 1 stall_at_cycle 37999 Active_warp 1
Core 1 stall_at_cycle 38000 Active_warp 1
Core 1 stall_at_cycle 38001 Active_warp 1
Core 1 stall_at_cycle 38002 Active_warp 1
Core 1 stall_at_cycle 38003 Active_warp 1
Core 1 stall_at_cycle 38004 Active_warp 1
kernel_name = _Z24solve_nqueen_cuda_kerneliiPjS_S_S_i 
kernel_launch_uid = 1 
gpu_sim_cycle = 38005
gpu_sim_insn = 1572593
gpu_ipc =      41.3786
gpu_tot_sim_cycle = 38005
gpu_tot_sim_insn = 1572593
gpu_tot_ipc =      41.3786
gpu_tot_issued_cta = 0
gpu_stall_dramfull = 0
gpu_stall_icnt2sh    = 48
gpu_total_sim_rate=314518
Cache L1D_000:	Size = 16384 B (32 Set x 4-way x 128 byte line)
		Access = 0, Miss = 0 (-nan), PendingHit = 0 (-nan)
Cache L1D_001:	Size = 16384 B (32 Set x 4-way x 128 byte line)
		Access = 3, Miss = 3 (1), PendingHit = 0 (0)
Cache L1D_002:	Size = 16384 B (32 Set x 4-way x 128 byte line)
		Access = 0, Miss = 0 (-nan), PendingHit = 0 (-nan)
Cache L1D_003:	Size = 16384 B (32 Set x 4-way x 128 byte line)
		Access = 0, Miss = 0 (-nan), PendingHit = 0 (-nan)
total_dl1_misses=3
total_dl1_accesses=3
total_dl1_miss_rate= 1.000000
gpgpu_n_tot_thrd_icount = 1939808
gpgpu_n_tot_w_icount = 60619
gpgpu_n_icache_hits = 35065
gpgpu_n_icache_misses = 253
gpgpu_n_l1dcache_read_hits = 0
gpgpu_n_l1dcache_read_misses = 3
gpgpu_n_l1dcache_write_accesses = 256
gpgpu_n_l1dcache_wirte_misses = 256
gpgpu_n_tcache_hits = 0
gpgpu_n_tcache_misses = 0
gpgpu_n_ccache_hits = 4597
gpgpu_n_ccache_misses = 128
gpgpu_n_stall_shd_mem = 1806
gpgpu_n_mem_read_local = 0
gpgpu_n_mem_write_local = 0
gpgpu_n_mem_read_global = 3
gpgpu_n_mem_write_global = 256
gpgpu_n_mem_texture = 0
gpgpu_n_mem_const = 4
gpgpu_n_load_insn  = 126
gpgpu_n_store_insn = 512
gpgpu_n_global_load_insn  = 126
gpgpu_n_global_store_insn = 512
gpgpu_n_local_load_insn  = 0
gpgpu_n_local_store_insn = 0
gpgpu_n_global_load_access = 3
gpgpu_n_shmem_insn = 215026
gpgpu_n_tex_insn = 0
gpgpu_n_const_mem_insn = 0
gpgpu_n_param_mem_insn = 296918
gpgpu_n_shmem_bkconflict = 0
gpgpu_n_cache_bkconflict = 0
gpgpu_n_intrawarp_mshr_merge = 0
gpgpu_n_cmem_portconflict = 906
gpgpu_stall_shd_mem[c_mem][bk_conf] = 906
gpgpu_stall_shd_mem[c_mem][mshr_rc] = 0
gpgpu_stall_shd_mem[c_mem][icnt_rc] = 0
gpgpu_stall_shd_mem[t_mem][mshr_rc] = 0
gpgpu_stall_shd_mem[t_mem][icnt_rc] = 0
gpgpu_stall_shd_mem[s_mem][bk_conf] = 900
gpgpu_stall_shd_mem[gl_mem][bk_conf] = 0
gpgpu_stall_shd_mem[gl_mem][coal_stall] = 0
gpgpu_stall_shd_mem[g_mem_ld][mshr_rc] = 0
gpgpu_stall_shd_mem[g_mem_ld][icnt_rc] = 0
gpgpu_stall_shd_mem[g_mem_ld][wb_icnt_rc] = 0
gpgpu_stall_shd_mem[g_mem_ld][wb_rsrv_fail] = 0
gpgpu_stall_shd_mem[g_mem_st][mshr_rc] = 0
gpgpu_stall_shd_mem[g_mem_st][icnt_rc] = 0
gpgpu_stall_shd_mem[g_mem_st][wb_icnt_rc] = 0
gpgpu_stall_shd_mem[g_mem_st][wb_rsrv_fail] = 0
gpgpu_stall_shd_mem[l_mem_ld][mshr_rc] = 0
gpgpu_stall_shd_mem[l_mem_ld][icnt_rc] = 0
gpgpu_stall_shd_mem[l_mem_ld][wb_icnt_rc] = 0
gpgpu_stall_shd_mem[l_mem_ld][wb_rsrv_fail] = 0
gpgpu_stall_shd_mem[l_mem_st][mshr_rc] = 0
gpgpu_stall_shd_mem[l_mem_st][icnt_rc] = 0
gpgpu_stall_shd_mem[l_mem_ld][wb_icnt_rc] = 0
gpgpu_stall_shd_mem[l_mem_ld][wb_rsrv_fail] = 0
gpu_reg_bank_conflict_stalls = 0
Warp Occupancy Distribution:
Stall:907	W0_Idle:13490	W0_Scoreboard:24872	W1:2851	W2:1326	W3:156	W4:1266	W5:335	W6:199	W7:326	W8:1343	W9:357	W10:418	W11:254	W12:414	W13:350	W14:130	W15:64	W16:1108	W17:20	W18:0	W19:0	W20:20	W21:789	W22:0	W23:0	W24:0	W25:0	W26:0	W27:0	W28:0	W29:0	W30:0	W31:256	W32:48637
gpgpu_l2_write_miss = 0
gpgpu_l2_write_access = 0
gpgpu_l2_read_miss = 0
gpgpu_l2_read_access = 0
Cache L2_bank_000:
MSHR contents

Cache L2_bank_001:
MSHR contents

Cache L2_bank_002:
MSHR contents

Cache L2_bank_003:
MSHR contents

Cache L2_bank_004:
MSHR contents

Cache L2_bank_005:
MSHR contents

Cache L2_bank_000:	Size = 131072 B (64 Set x 16-way x 128 byte line)
		Access = 12, Miss = 3 (0.25), PendingHit = 9 (0.75)
Cache L2_bank_001:	Size = 131072 B (64 Set x 16-way x 128 byte line)
		Access = 2, Miss = 2 (1), PendingHit = 0 (0)
Cache L2_bank_002:	Size = 131072 B (64 Set x 16-way x 128 byte line)
		Access = 72, Miss = 7 (0.0972), PendingHit = 7 (0.0972)
Cache L2_bank_003:	Size = 131072 B (64 Set x 16-way x 128 byte line)
		Access = 72, Miss = 4 (0.0556), PendingHit = 12 (0.167)
Cache L2_bank_004:	Size = 131072 B (64 Set x 16-way x 128 byte line)
		Access = 72, Miss = 4 (0.0556), PendingHit = 9 (0.125)
Cache L2_bank_005:	Size = 131072 B (64 Set x 16-way x 128 byte line)
		Access = 68, Miss = 3 (0.0441), PendingHit = 6 (0.0882)
L2 Cache Total Miss Rate = 0.077

icnt_total_pkts_mem_to_simt=458
icnt_total_pkts_simt_to_mem=554

LD_mem_lat_dist  0 0 0 0 0 0 0 0 0 0 0 0 0 0 0 0 0 0 0 0 0 0 0 0 0 0 0
ST_mem_lat_dist  0 0 0 0 0 0 0 0 0 0 0 0 0 0 0 0 0 0 0 0 0 0 0 0 0 0 0


gpgpu_simulation_time = 0 days, 0 hrs, 0 min, 5 sec (5 sec)
gpgpu_simulation_rate = 314518 (inst/sec)
gpgpu_simulation_rate = 7601 (cycle/sec)
GPU: 8 queen = 92  time = 3507.383057 msec
